data_global 
_audit_creation_date        "2019-10-15"
_audit_creation_method CRYSTALS_ver_14.61_build_6999 

_oxford_structure_analysis_title  'Data\ajn19-019\import.cif At 13:34 on 15/10'
_chemical_name_systematic         .
_chemical_melting_point           'not measured'
#looking for refcif 
 
 
# Check this file using the IUCr facility at: 
# http://checkcif.iucr.org/ 
 
# The content below is held in the file 'script/refcif.dat'. This is a text 
# file which you may edit to reflect local conditions. 
# Items which need looking at are represented by a '?'. 
# Items for which there are choices are prefixed with 'choose from'. 
 
_publ_contact_letter 
; 
 Please consider this CIF submission for 
 publication as a Short Format Paper in Acta 
 Crystallographica E. 
; 
_publ_contact_author_name         'Anthony Other' 
_publ_contact_author_address 
; 
 Chemical Crystallography Laboratory, 
 Department of Chemistry, 
 University of Nowhere, 
 Nowhere, NO1 4T, UK. 
; 
 
_publ_contact_author_phone        '+44 1865 000000' 
_publ_contact_author_fax          '+44 1865 000000' 
_publ_contact_author_email        'a.n.other@chem.no.ac.uk' 
_publ_requested_journal           'Section E' 
_publ_requested_category          EO # choose from: FI FM FO CI CM CO AD 
_publ_requested_coeditor_name     'Prof William Clegg' 
 
_publ_section_title 
# Title of paper - generally just the systematic or trivial name 
; ? 
; 
 
# The loop structure below should contain the names and addresses of all 
# authors, in the required order of publication. Repeat as necessary. 
loop_ 
 _publ_author_name 
 _publ_author_address 
 _publ_author_footnote 
 'Other, Anthony N.' # Author 1 
; 
 ? # Address for author 1 
; 
; 
 ? # Footnote for author 1 
; 
 'Else, S. O.' # Author 2 
; 
 ? # Address 2 
; 
; 
 ? # Footnote 2 
; 
 
 
_publ_section_abstract 
# Text of the abstract 
# (a) The Abstract must be self-contained and comprehensible 
# without the rest of the paper. This means no references 
# to atom names or to compound numbers; compounds must be 
# identified as the title compound, or by name or by some other 
# means such as derivatives of each other (e.g. "the 
# corresponding ketone"). 
# (b) The chemical formula of "the title compound" must be given. 
# (c) Any crystallographic molecular symmetry should be 
# mentioned, and also the presence of more than one molecule 
# in the asymmetric unit (i.e. anything other than Z'=1). 
; 
? 
; 
 
_publ_section_related_literature  # Not in version 2.3.1 
############################################################### 
# Essential references (e.g. to the origin of the material studied, related 
# structural studies, and to information supporting the reported structure) 
# should be cited in this section, with appropriate very brief explanatory 
# text, for example `The synthesis of the complex is described by Jones 
# (2001). The anhydrous complex has essentially the same coordination 
# geometry (Smith, 2003).' In addition, all references included in the 
# supplementary materials, but not elsewhere in the published article, 
# should be given here. The simple text `For related literature, see:...' 
# may be used, but further details should be provided in the Comment 
# section, which forms part of the supplementary material. 
############################################################### 
; 
? 
; 
 
_publ_section_comment 
# Text of the paper 
# Note that atoms are referenced as N2, not N(2) or N~2~ 
# If text containing () occur within (), the outer ones should be [] 
# Figures should be referenced as Fig. 
; 
? 
; 
_publ_section_acknowledgements    # Acknowledgments 
; 
? 
; 
_publ_section_figure_captions 
# Captions to figures - Start each caption on a new line after a blank line 
; 
Fig. 1. 
The title compound with displacement ellipsoids drawn at the 50% 
probability level. H atoms are shown as spheres of 
arbitary radius. 
 
; 
 
 
_publ_section_exptl_refinement 
# Some potentially useful phrases are donated by Bill Clegg: 
; 
In the absence of significant anomalous scattering, Friedel pairs were 
merged. 
 
The absolute configuration was arbitrarily assigned. 
 
The relatively large ratio of minimum to maximum corrections applied 
in the multiscan process (1:nnn) reflect changes in the illuminated 
volume of the crystal. 
 
Changes in illuminated volume were kept to a minimum, and were 
taken into account (G\"orbitz, 1999) by the multi-scan inter-frame 
scaling (DENZO/SCALEPACK, Otwinowski & Minor, 1997). 
 
 
G\"orbitz, C. H. (1999). Acta Cryst. B55, 1090-1098. 
 
 
 
 
The H atoms were all located in a difference map, but those 
attached to carbon atoms were repositioned geometrically. 
The H atoms were initially refined with soft restraints on the 
bond lengths and angles to regularise their geometry 
(C---H in the range 0.93--0.98, 
N---H in the range 0.86--0.89 
N---H to 0.86 
O---H = 0.82 
\%A) 
and 
U~iso~(H) (in the range 1.2-1.5 times U~eq~ of the parent atom), 
after which the positions were refined with riding constraints 
(Cooper et al, 2010). 
 
Cooper, R. I., Thompson, A. L. & Watkin, D. J. (2010). J. Appl. Cryst. 
43, 1100-1107. 
 
; 
 
_publ_section_exptl_prep 
# Brief details or a reference. Include solvent if known 
; 
? 
; 
 
# Hand-made tables can be put in the cif. The number of columns 
# is set in the loop header. 
# The contants of each column can either be a piece of text 
# without any spaces (eg a number) or other text enclosed in " " 
# Remove the leading # in the following example 
 
#_geom_extra_table_head_A 
#; 
#Table 2. 
#Molecular parameters deviating most from MOGUL averages 
#; 
# 
#loop_ 
#_geom_extra_tableA_col_1 
#_geom_extra_tableA_col_2 
#_geom_extra_tableA_col_3 
#_geom_extra_tableA_col_4 
# 
#Parameter "Observed Value" "MOGUL Value" "MOGUL e.s.d" 
#N5-C6-C4 129 124 "7 (\%)" 
#C3-O10-C2 105 109 "2 (\%)" 
#C6-O7 1.25 1.22 ".02 (\%A)" 
# 
 
data_I 
 
_exptl_special_details 
; 
 The crystal was 
placed in the cold stream of an Oxford 
Cryosystems open-flow nitrogen cryostat (Cosier & 
Glazer, 1986) with a nominal stability of 0.1K. 
 
Cosier, J. & Glazer, A.M., 1986. J. Appl. Cryst. 105-107. 
; 
_refine_special_details 
; 
? 
; 
#--------------------------------------------------------------- 
# _oxford_ data items, April 2010: 
# There is some uncertainty about the correct way of forming local data 
# names, e.g. 
 
# _atom_site_special_shape_oxford 
# or 
# _oxford_atom_site_special_shape 
 
# see: 
# http://www.iucr.org/resources/cif/spec/version1.1/semantics#namespace 
 
# A reserved prefix, e.g. foo, must be used in the following way 
# " If the data file contains items defined in a DDL1 dictionary, the 
# local data names assigned under the reserved prefix must contain it as 
# their first component, e.g. _foo_atom_site_my_item. " 
 
# However, this seems to say the opposite: 
# http://www.iucr.org/__data/iucr/cif/standard/cifstd8.html 
 
# According to advice from the IUCr, CRYSTALS is correct 
#--------------------------------------------------------------- 
# End of 'script/refcif.dat' 
#end of refcif 
_cell_length_a                    9.3439(5)
_cell_length_b                    9.8582(6)
_cell_length_c                    22.7167(13)
_cell_angle_alpha                 93.116(2)
_cell_angle_beta                  90.204(2)
_cell_angle_gamma                 105.1086(19)
_cell_volume                      2016.9(2)
 
_symmetry_cell_setting            'triclinic' 
_symmetry_space_group_name_H-M    'P -1 ' 
_symmetry_space_group_name_Hall   ? 
loop_
 _symmetry_equiv_pos_as_xyz
 'x,y,z'
 '-x,-y,-z'

loop_
_atom_type_symbol
_atom_type_scat_dispersion_real
_atom_type_scat_dispersion_imag
_atom_type_scat_Cromer_Mann_a1
_atom_type_scat_Cromer_Mann_b1
_atom_type_scat_Cromer_Mann_a2
_atom_type_scat_Cromer_Mann_b2
_atom_type_scat_Cromer_Mann_a3
_atom_type_scat_Cromer_Mann_b3
_atom_type_scat_Cromer_Mann_a4
_atom_type_scat_Cromer_Mann_b4
_atom_type_scat_Cromer_Mann_c
_atom_type_scat_source  
 C       0.0033   0.0016   2.3100  20.8439   1.0200  10.2075   1.5886   0.5687
   0.8650  51.6512   0.2156 'International Tables Vol C 4.2.6.8 and 6.1.1.4'
 N       0.0061   0.0033  12.2126   0.0057   3.1322   9.8933   2.0125  28.9975
   1.1663   0.5826 -11.5290 'International Tables Vol C 4.2.6.8 and 6.1.1.4'
 H       0.0000   0.0000   0.4930  10.5109   0.3229  26.1257   0.1402   3.1424
   0.0408  57.7998   0.0030 'International Tables Vol C 4.2.6.8 and 6.1.1.4'
 Pb     -3.3944  10.1111  31.0617   0.6902  13.0637   2.3576  18.4420   8.6180
   5.9696  47.2579  13.4118 'International Tables Vol C 4.2.6.8 and 6.1.1.4'
 I      -0.4742   1.8119  20.1472   4.3470  18.9949   0.3814   7.5138  27.7660
   2.2735  66.8776   4.0712 'International Tables Vol C 4.2.6.8 and 6.1.1.4'
 O       0.0106   0.0060   3.0485  13.2771   2.2868   5.7011   1.5463   0.3239
   0.8670  32.9089   0.2508 'International Tables Vol C 4.2.6.8 and 6.1.1.4'
 
 
_cell_formula_units_Z                    2

# Given Formula = C8 H28 I8 N4 O20 Pb4 
# Dc =      3.86 Fooo =   2032.00 Mu =    228.35 M =   2344.36
# Found Formula = C13 H43 I9 N6 O2 Pb2 
# Dc =      3.08 FOOO =   1640.00 Mu =    152.44 M =   1872.06

_chemical_formula_sum             'C13 H43 I9 N6 O2 Pb2'
_chemical_formula_moiety          'C13 H43 I9 N6 O2 Pb2'
_chemical_compound_source                .
_chemical_formula_weight           1872.06
 
 
_cell_measurement_reflns_used            0
_cell_measurement_theta_min              0
_cell_measurement_theta_max              0
_cell_measurement_temperature          100
 
_exptl_crystal_description        'block' 
_exptl_crystal_colour             'yellow' 
_exptl_crystal_size_min           0.070 
_exptl_crystal_size_mid           0.120 
_exptl_crystal_size_max           0.210 
 
_exptl_crystal_density_diffrn     3.082 
_exptl_crystal_density_meas       'not measured' 
_exptl_crystal_density_method     'not measured' 
# Non-dispersive F(000): 
_exptl_crystal_F_000              1640 
_exptl_absorpt_coefficient_mu     15.244 
 
# Sheldrick geometric approximatio 0.16 0.34 
_exptl_absorpt_correction_type    multi-scan 
_exptl_absorpt_process_details    'DENZO/SCALEPACK (Otwinowski & Minor, 1997)' 
_exptl_absorpt_correction_T_min   0.16 
_exptl_absorpt_correction_T_max   0.34 
# For a Kappa CCD, set Tmin to 1.0 and 
# Tmax to the ratio of max:min frame scales in scale_all.log 
_diffrn_measurement_device_type   'Nonius KappaCCD' 
_diffrn_measurement_device        'Area' 
_diffrn_radiation_monochromator   'graphite' 
_diffrn_radiation_type            'Mo K\a'
_diffrn_radiation_wavelength           0.71073
_diffrn_measurement_method        \w 
 
# If a reference occurs more than once, delete the author 
# and date from subsequent references. 
_computing_data_collection        'COLLECT (Nonius, 2001).' 
_computing_cell_refinement        'DENZO/SCALEPACK (Otwinowski & Minor, 1997)' 
_computing_data_reduction         'DENZO/SCALEPACK (Otwinowski & Minor, 1997)' 
_computing_structure_solution     'Superflip (Palatinus & Chapuis, 2007)' 
_computing_structure_refinement   'CRYSTALS (Betteridge et al., 2003)' 
_computing_publication_material   'CRYSTALS (Betteridge et al., 2003)' 
_computing_molecular_graphics     'CAMERON (Watkin et al., 1996)' 
 
_diffrn_standards_interval_time   . 
_diffrn_standards_interval_count  . 
_diffrn_standards_number          0 
_diffrn_standards_decay_%         . 
 
_diffrn_ambient_temperature        100
_diffrn_reflns_number             14726 
_diffrn_reflns_av_unetI/netI      0.050 
_reflns_number_total              14726 
_diffrn_reflns_av_R_equivalents   0.000 
# Number of reflections without Friedels Law is 0 
# Number of reflections with Friedels Law is 14726 
# Theoretical number of reflections is about 31328 
 
 
_diffrn_reflns_theta_min          2.143 
_diffrn_reflns_theta_max          33.370 
_diffrn_measured_fraction_theta_max 0.940 
 
_diffrn_reflns_theta_full         25.027 
_diffrn_measured_fraction_theta_full 0.957 
 
 
_diffrn_reflns_limit_h_min        -14 
_diffrn_reflns_limit_h_max        14 
_diffrn_reflns_limit_k_min        -15 
_diffrn_reflns_limit_k_max        15 
_diffrn_reflns_limit_l_min        0 
_diffrn_reflns_limit_l_max        35 
_reflns_limit_h_min               -14 
_reflns_limit_h_max               14 
_reflns_limit_k_min               -15 
_reflns_limit_k_max               15 
_reflns_limit_l_min               0 
_reflns_limit_l_max               35 
 
_oxford_diffrn_Wilson_B_factor    0.00 
_oxford_diffrn_Wilson_scale       0.00 
 
_atom_sites_solution_primary      other  #heavy,direct,difmap,geom,iterative
# _atom_sites_solution_secondary  difmap
_atom_sites_solution_hydrogens    difmap
 
_refine_diff_density_min          -2.36 
_refine_diff_density_max          1.92 
 
 
# The current dictionary definitions do not cover the 
# situation where the reflections used for refinement were 
# selected by a user-defined sigma threshold 
 
 
# The values actually used during refinement 
_oxford_refine_reflns_threshold_expression_ref   I>3.0\s(I)
_refine_ls_number_restraints      51 
_refine_ls_number_parameters      338 
_refine_ls_number_reflns          9708 
_oxford_refine_ls_R_factor_ref    0.0425 
_refine_ls_wR_factor_ref          0.0867 
_refine_ls_goodness_of_fit_ref    1.0474 
_refine_ls_shift/su_max           0.0007534 
_refine_ls_shift/su_mean          0.0000322 
 
 
# The values computed with all filters except I/sigma 
_oxford_reflns_number_all         9708 
_refine_ls_R_factor_all           0.0425 
_refine_ls_wR_factor_all          0.0867 
 
# The values computed with a 2 sigma cutoff - a la SHELX 
_reflns_threshold_expression                I>2.0\s(I)
_reflns_number_gt                 9708 
_refine_ls_R_factor_gt            0.0425 
_refine_ls_wR_factor_gt           0.0867 
 
 
_refine_ls_structure_factor_coef  Fsqd 
_refine_ls_matrix_type            full
_refine_ls_hydrogen_treatment     mixed          #undef, noref, refall,
                                                 # refxyz, refU, constr or mixed
_refine_ls_weighting_scheme       calc 
_refine_ls_weighting_details 
;
 Method= Modified Sheldrick 
 w=1/[\s^2^(F^2^) + ( 0.01P)^2^ +78.98P] 
 ,where P=(max(Fo^2^,0) + 2Fc^2^)/3 
;
# Insert your own references if required - in alphabetical order 
_publ_section_references 
; 
Betteridge, P.W., Carruthers, J.R., Cooper, R.I., 
Prout, K. & Watkin, D.J. (2003). J. Appl. Cryst. 36, 1487. 
 
Larson, A.C. (1970) Crystallographic Computing, Ed Ahmed, F.R., 
Munksgaard, Copenhagen, 291-294. 
 
Nonius (2001). COLLECT. Nonius BV, Delft, The Netherlands. 
 
Otwinowski, Z. & Minor, W. (1997). Methods in Enzymology, Vol. 276, 
edited by C. W. Carter Jr & R. M. Sweet, pp. 307--326. 
New York: Academic Press. 
 
Palatinus, L. & Chapuis, G. (2007). J. Appl. Cryst. 40, 786-790. 
 
Watkin, D.J., Prout, C.K. & Pearce, L.J. (1996). CAMERON, Chemical 
Crystallography Laboratory, Oxford, UK. 
; 

# Uequiv = arithmetic mean of Ui i.e. Ueqiv = (U1+U2+U3)/3

# Replace last . with number of unfound hydrogen atoms attached to an atom.

# ..._refinement_flags_... 
# . no refinement constraints           S special position constraint on site
# G rigid group refinement of site      R riding atom
# D distance or angle restraint on site T thermal displacement constraints
# U Uiso or Uij restraint (rigid bond)  P partial occupancy constraint


loop_
_atom_site_label
_atom_site_type_symbol
_atom_site_fract_x
_atom_site_fract_y
_atom_site_fract_z
_atom_site_U_iso_or_equiv
_atom_site_occupancy
_atom_site_adp_type
_atom_site_refinement_flags_posn
_atom_site_refinement_flags_adp
_atom_site_refinement_flags_occupancy
_atom_site_disorder_assembly
_atom_site_disorder_group
_atom_site_attached_hydrogens
Pb1 Pb 0.74705(4) 0.41445(4) 0.157373(15) 0.0181 1.0000 Uani . . . . . . 
Pb2 Pb 0.73777(4) 0.40642(4) 0.342151(15) 0.0182 1.0000 Uani . . . . . . 
I1 I 0.47611(7) 0.32812(7) 0.06409(3) 0.0197 1.0000 Uani . . . . . . 
I2 I 0.92120(7) 0.25396(7) 0.07307(3) 0.0214 1.0000 Uani . . . . . . 
I3 I 0.88369(7) 0.70227(7) 0.10268(3) 0.0250 1.0000 Uani . . . . . . 
I4 I 1.01990(7) 0.48641(6) 0.25186(3) 0.0187 1.0000 Uani . . . . . . 
I5 I 0.57363(7) 0.57974(7) 0.25162(3) 0.0233 1.0000 Uani . . . . . . 
I6 I 0.61516(7) 0.14649(7) 0.24429(3) 0.0216 1.0000 Uani . . . . . . 
I7 I 0.46848(7) 0.31720(7) 0.42914(3) 0.0210 1.0000 Uani . . . . . . 
I8 I 0.91214(7) 0.24352(7) 0.41655(3) 0.0211 1.0000 Uani . . . . . . 
I9 I 0.87048(8) 0.69530(7) 0.41304(3) 0.0242 1.0000 Uani . . . . . . 
O1 O 0.2507(8) 0.8556(8) 0.3003(3) 0.0222 1.0000 Uani . . . . . . 
O2 O 0.2681(8) 0.8728(7) 0.2034(3) 0.0211 1.0000 Uani . . . . . . 
N1 N 0.4281(9) -0.1469(10) 0.1036(4) 0.0238 1.0000 Uani D . . . . . 
N2 N 0.2150(10) -0.4561(10) 0.0412(4) 0.0285 1.0000 Uani D . . . . . 
N3 N 0.1573(9) 0.1035(8) 0.2346(4) 0.0203 1.0000 Uani D . . . . . 
N4 N -0.0477(9) -0.1833(8) 0.2649(4) 0.0231 1.0000 Uani D . . . . . 
N5 N 0.4028(9) 0.8335(9) 0.3985(4) 0.0198 1.0000 Uani D . . . . . 
N6 N 0.2114(10) 0.5348(10) 0.4637(4) 0.0249 1.0000 Uani D . . . . . 
C1 C 0.4247(11) -0.3011(10) 0.1027(4) 0.0215 1.0000 Uani D . . . . . 
C2 C 0.2702(11) -0.4016(11) 0.1024(4) 0.0224 1.0000 Uani D . . . . . 
C3 C 0.3311(13) -0.1125(12) 0.0572(5) 0.0282 1.0000 Uani D . . . . . 
C4 C 0.5849(12) -0.0612(12) 0.0975(5) 0.0295 1.0000 Uani D . . . . . 
C5 C -0.0088(10) 0.0578(11) 0.2269(5) 0.0232 1.0000 Uani D . . . . . 
C6 C -0.0873(11) -0.0465(10) 0.2705(5) 0.0236 1.0000 Uani D . . . . . 
C7 C 0.2080(12) 0.1757(11) 0.2935(5) 0.0269 1.0000 Uani D . . . . . 
C8 C 0.2226(12) 0.1953(12) 0.1864(5) 0.0278 1.0000 Uani D . . . . . 
C9 C 0.4060(11) 0.6816(10) 0.4011(4) 0.0203 1.0000 Uani D . . . . . 
C10 C 0.2520(11) 0.5803(10) 0.4033(4) 0.0213 1.0000 Uani D . . . . . 
C11 C 0.3272(12) 0.8828(12) 0.4491(5) 0.0277 1.0000 Uani D . . . . . 
C12 C 0.5579(11) 0.9228(12) 0.3933(5) 0.0294 1.0000 Uani D . . . . . 
C13 C 0.3095(10) 0.8395(9) 0.2521(4) 0.0182 1.0000 Uani . . . . . . 
H1 H 0.396(3) -0.123(3) 0.1387(10) 0.036(2) 1.0000 Uiso D . . . . . 
H2 H 0.4793 -0.3164 0.1369 0.0271 1.0000 Uiso R . . . . . 
H3 H 0.4739 -0.3226 0.0672 0.0270 1.0000 Uiso R . . . . . 
H4 H 0.2735 -0.4812 0.1251 0.0270 1.0000 Uiso R . . . . . 
H5 H 0.2019 -0.3526 0.1200 0.0270 1.0000 Uiso R . . . . . 
H6 H 0.204(9) -0.385(3) 0.0204(17) 0.043(2) 1.0000 Uiso D . . . . . 
H7 H 0.128(5) -0.519(7) 0.0433(14) 0.043(2) 1.0000 Uiso D . . . . . 
H8 H 0.280(5) -0.497(8) 0.0236(18) 0.043(2) 1.0000 Uiso D . . . . . 
H9 H 0.3576 -0.1465 0.0194 0.0439 1.0000 Uiso R . . . . . 
H10 H 0.2292 -0.1574 0.0651 0.0440 1.0000 Uiso R . . . . . 
H11 H 0.3458 -0.0124 0.0578 0.0440 1.0000 Uiso R . . . . . 
H12 H 0.5884 0.0371 0.1020 0.0439 1.0000 Uiso R . . . . . 
H13 H 0.6460 -0.0836 0.1276 0.0439 1.0000 Uiso R . . . . . 
H14 H 0.6207 -0.0824 0.0594 0.0440 1.0000 Uiso R . . . . . 
H15 H 0.190(3) 0.026(2) 0.2310(12) 0.030(2) 1.0000 Uiso D . . . . . 
H16 H -0.0461 0.1410 0.2311 0.0300 1.0000 Uiso R . . . . . 
H17 H -0.0311 0.0145 0.1876 0.0301 1.0000 Uiso R . . . . . 
H18 H -0.0607 -0.0052 0.3100 0.0279 1.0000 Uiso R . . . . . 
H19 H -0.1936 -0.0644 0.2643 0.0280 1.0000 Uiso R . . . . . 
H20 H -0.102(7) -0.243(4) 0.289(3) 0.035(2) 1.0000 Uiso D . . . . . 
H21 H -0.065(9) -0.220(5) 0.2278(13) 0.035(2) 1.0000 Uiso D . . . . . 
H22 H 0.048(3) -0.170(3) 0.274(4) 0.035(2) 1.0000 Uiso D . . . . . 
H23 H 0.1699 0.1129 0.3240 0.0410 1.0000 Uiso R . . . . . 
H24 H 0.1719 0.2583 0.2987 0.0410 1.0000 Uiso R . . . . . 
H25 H 0.3142 0.2027 0.2958 0.0410 1.0000 Uiso R . . . . . 
H26 H 0.1884 0.2792 0.1894 0.0429 1.0000 Uiso R . . . . . 
H27 H 0.1917 0.1459 0.1492 0.0431 1.0000 Uiso R . . . . . 
H28 H 0.3289 0.2203 0.1897 0.0430 1.0000 Uiso R . . . . . 
H29 H 0.352(3) 0.840(3) 0.3658(10) 0.030(2) 1.0000 Uiso D . . . . . 
H30 H 0.4617 0.6715 0.4359 0.0240 1.0000 Uiso R . . . . . 
H31 H 0.4542 0.6553 0.3662 0.0240 1.0000 Uiso R . . . . . 
H32 H 0.2499 0.4978 0.3776 0.0269 1.0000 Uiso R . . . . . 
H33 H 0.1793 0.6265 0.3894 0.0270 1.0000 Uiso R . . . . . 
H34 H 0.184(9) 0.603(4) 0.4846(16) 0.037(2) 1.0000 Uiso D . . . . . 
H35 H 0.136(6) 0.458(5) 0.4613(13) 0.037(2) 1.0000 Uiso D . . . . . 
H36 H 0.289(4) 0.516(9) 0.4812(18) 0.037(2) 1.0000 Uiso D . . . . . 
H37 H 0.3600 0.8528 0.4852 0.0418 1.0000 Uiso R . . . . . 
H38 H 0.2221 0.8440 0.4443 0.0420 1.0000 Uiso R . . . . . 
H39 H 0.3498 0.9841 0.4505 0.0420 1.0000 Uiso R . . . . . 
H40 H 0.6135 0.9150 0.4280 0.0440 1.0000 Uiso R . . . . . 
H41 H 0.6014 0.8892 0.3591 0.0440 1.0000 Uiso R . . . . . 
H42 H 0.5558 1.0189 0.3897 0.0440 1.0000 Uiso R . . . . . 
H43 H 0.3895 0.7994 0.2523 0.0220 1.0000 Uiso R . . . . . 
loop_
_atom_site_aniso_label
_atom_site_aniso_U_11
_atom_site_aniso_U_22
_atom_site_aniso_U_33
_atom_site_aniso_U_23
_atom_site_aniso_U_13
_atom_site_aniso_U_12
Pb1 0.01939(16) 0.02011(16) 0.01488(15) 0.00209(12) 0.00201(12) 0.00526(13) 
Pb2 0.02018(16) 0.01985(16) 0.01474(15) 0.00252(12) 0.00104(12) 0.00532(13) 
I1 0.0202(3) 0.0224(3) 0.0175(3) 0.0028(2) 0.0020(2) 0.0068(2) 
I2 0.0207(3) 0.0228(3) 0.0208(3) 0.0011(2) 0.0029(2) 0.0056(2) 
I3 0.0254(3) 0.0247(3) 0.0256(3) 0.0084(3) 0.0041(2) 0.0062(2) 
I4 0.0187(3) 0.0189(3) 0.0193(3) 0.0021(2) 0.0009(2) 0.0062(2) 
I5 0.0276(3) 0.0303(3) 0.0176(3) 0.0030(2) 0.0025(2) 0.0171(3) 
I6 0.0191(3) 0.0190(3) 0.0264(3) 0.0020(2) 0.0007(2) 0.0046(2) 
I7 0.0207(3) 0.0233(3) 0.0200(3) 0.0032(2) 0.0031(2) 0.0072(2) 
I8 0.0206(3) 0.0224(3) 0.0207(3) 0.0045(2) 0.0008(2) 0.0059(2) 
I9 0.0276(3) 0.0236(3) 0.0206(3) 0.0009(2) 0.0010(2) 0.0050(2) 
O1 0.020(3) 0.029(4) 0.019(3) 0.004(3) 0.002(3) 0.009(3) 
O2 0.024(3) 0.024(3) 0.016(3) -0.005(3) -0.002(3) 0.010(3) 
N1 0.018(4) 0.031(5) 0.022(4) -0.003(3) 0.000(3) 0.007(3) 
N2 0.025(4) 0.027(5) 0.032(5) -0.002(4) 0.004(4) 0.002(4) 
N3 0.024(4) 0.020(4) 0.020(4) 0.005(3) 0.008(3) 0.010(3) 
N4 0.021(4) 0.015(4) 0.034(5) 0.003(3) 0.006(3) 0.006(3) 
N5 0.020(4) 0.022(4) 0.017(4) 0.002(3) -0.002(3) 0.005(3) 
N6 0.023(4) 0.030(5) 0.019(4) 0.002(3) 0.002(3) 0.001(3) 
C1 0.023(5) 0.024(5) 0.019(4) -0.002(4) -0.000(3) 0.009(4) 
C2 0.027(5) 0.026(5) 0.015(4) 0.008(4) 0.008(4) 0.006(4) 
C3 0.035(6) 0.028(5) 0.026(5) 0.005(4) 0.000(4) 0.013(5) 
C4 0.025(5) 0.028(5) 0.036(6) -0.001(5) -0.002(4) 0.009(4) 
C5 0.013(4) 0.028(5) 0.029(5) 0.007(4) 0.002(3) 0.005(4) 
C6 0.019(4) 0.021(5) 0.034(6) 0.006(4) 0.005(4) 0.010(4) 
C7 0.029(5) 0.019(5) 0.030(5) -0.003(4) 0.006(4) 0.003(4) 
C8 0.027(5) 0.033(6) 0.027(5) 0.015(4) 0.010(4) 0.011(4) 
C9 0.027(5) 0.021(4) 0.017(4) 0.000(3) 0.003(3) 0.015(4) 
C10 0.024(5) 0.022(5) 0.016(4) -0.005(3) -0.004(3) 0.003(4) 
C11 0.028(5) 0.027(5) 0.030(6) 0.001(4) 0.008(4) 0.010(4) 
C12 0.021(5) 0.031(6) 0.034(6) 0.004(5) 0.005(4) 0.002(4) 
C13 0.020(4) 0.014(4) 0.023(5) 0.006(3) 0.000(3) 0.008(3) 

_refine_ls_extinction_coef 17.6(8) 
_refine_ls_extinction_method 
    'Larson (1970), Equation 22'
_oxford_refine_ls_scale 0.15655(5) 
loop_
 _geom_bond_atom_site_label_1
 _geom_bond_site_symmetry_1
 _geom_bond_atom_site_label_2
 _geom_bond_site_symmetry_2
 _geom_bond_distance
 _geom_bond_publ_flag
Pb1 . I1 . 3.2041(7)    yes
Pb1 . I2 . 3.1391(7)    yes
Pb1 . I3 . 3.1193(7)    yes
Pb1 . I4 . 3.2347(7)    yes
Pb1 . I5 . 3.2995(7)    yes
Pb1 . I6 . 3.3590(7)    yes
Pb2 . I4 . 3.3029(7)    yes
Pb2 . I5 . 3.3505(7)    yes
Pb2 . I6 . 3.2638(8)    yes
Pb2 . I7 . 3.1750(7)    yes
Pb2 . I8 . 3.1191(7)    yes
Pb2 . I9 . 3.1444(8)    yes
O1 . C13 . 1.247(11)    yes
O2 . C13 . 1.260(11)    yes
N1 . C1 . 1.511(13)    yes
N1 . C3 . 1.496(13)    yes
N1 . C4 . 1.499(13)    yes
N1 . H1 . 0.89(2)    no
N2 . C2 . 1.502(14)    yes
N2 . H6 . 0.89(2)    no
N2 . H7 . 0.89(2)    no
N2 . H8 . 0.89(2)    no
N3 . C5 . 1.506(12)    yes
N3 . C7 . 1.496(14)    yes
N3 . C8 . 1.488(12)    yes
N3 . H15 . 0.89(2)    no
N4 . C6 . 1.488(12)    yes
N4 . H20 . 0.89(2)    no
N4 . H21 . 0.89(2)    no
N4 . H22 . 0.89(2)    no
N5 . C9 . 1.511(12)    yes
N5 . C11 . 1.475(13)    yes
N5 . C12 . 1.496(13)    yes
N5 . H29 . 0.89(2)    no
N6 . C10 . 1.489(12)    yes
N6 . H34 . 0.89(2)    no
N6 . H35 . 0.89(2)    no
N6 . H36 . 0.89(2)    no
C1 . C2 . 1.523(14)    yes
C1 . H2 . 0.969    no
C1 . H3 . 0.969    no
C2 . H4 . 0.970    no
C2 . H5 . 0.972    no
C3 . H9 . 0.963    no
C3 . H10 . 0.961    no
C3 . H11 . 0.960    no
C4 . H12 . 0.961    no
C4 . H13 . 0.959    no
C4 . H14 . 0.962    no
C5 . C6 . 1.516(13)    yes
C5 . H16 . 0.972    no
C5 . H17 . 0.967    no
C6 . H18 . 0.968    no
C6 . H19 . 0.971    no
C7 . H23 . 0.961    no
C7 . H24 . 0.960    no
C7 . H25 . 0.959    no
C8 . H26 . 0.960    no
C8 . H27 . 0.958    no
C8 . H28 . 0.960    no
C9 . C10 . 1.525(14)    yes
C9 . H30 . 0.968    no
C9 . H31 . 0.971    no
C10 . H32 . 0.971    no
C10 . H33 . 0.972    no
C11 . H37 . 0.964    no
C11 . H38 . 0.959    no
C11 . H39 . 0.963    no
C12 . H40 . 0.959    no
C12 . H41 . 0.961    no
C12 . H42 . 0.960    no
C13 . H43 . 0.933    no
loop_
 _geom_angle_atom_site_label_1
 _geom_angle_site_symmetry_1
 _geom_angle_atom_site_label_2
 _geom_angle_site_symmetry_2
 _geom_angle_atom_site_label_3
 _geom_angle_site_symmetry_3
 _geom_angle
 _geom_angle_publ_flag
I1 . Pb1 . I2 . 88.140(19)    yes
I1 . Pb1 . I3 . 93.39(2)    yes
I2 . Pb1 . I3 . 92.95(2)    yes
I1 . Pb1 . I4 . 177.36(2)    yes
I2 . Pb1 . I4 . 90.398(19)    yes
I3 . Pb1 . I4 . 88.88(2)    yes
I1 . Pb1 . I5 . 94.405(19)    yes
I2 . Pb1 . I5 . 177.12(2)    yes
I3 . Pb1 . I5 . 88.26(2)    yes
I4 . Pb1 . I5 . 87.007(19)    yes
I1 . Pb1 . I6 . 95.528(19)    yes
I2 . Pb1 . I6 . 96.098(19)    yes
I3 . Pb1 . I6 . 167.48(2)    yes
I4 . Pb1 . I6 . 82.440(18)    yes
I5 . Pb1 . I6 . 82.320(18)    yes
I4 . Pb2 . I5 . 85.075(18)    yes
I4 . Pb2 . I6 . 82.874(18)    yes
I5 . Pb2 . I6 . 82.984(19)    yes
I4 . Pb2 . I7 . 177.70(2)    yes
I5 . Pb2 . I7 . 96.629(19)    yes
I6 . Pb2 . I7 . 95.775(19)    yes
I4 . Pb2 . I8 . 89.579(18)    yes
I5 . Pb2 . I8 . 174.40(2)    yes
I6 . Pb2 . I8 . 94.73(2)    yes
I7 . Pb2 . I8 . 88.671(19)    yes
I4 . Pb2 . I9 . 88.662(19)    yes
I5 . Pb2 . I9 . 87.69(2)    yes
I6 . Pb2 . I9 . 167.89(2)    yes
I7 . Pb2 . I9 . 92.95(2)    yes
I8 . Pb2 . I9 . 93.86(2)    yes
Pb1 . I4 . Pb2 . 80.018(17)    yes
Pb1 . I5 . Pb2 . 78.404(17)    yes
Pb2 . I6 . Pb1 . 78.778(17)    yes
C1 . N1 . C3 . 113.6(8)    yes
C1 . N1 . C4 . 109.3(8)    yes
C3 . N1 . C4 . 110.1(8)    yes
C1 . N1 . H1 . 107.8(16)    no
C3 . N1 . H1 . 107.9(16)    no
C4 . N1 . H1 . 107.9(17)    no
C2 . N2 . H6 . 109.6(18)    no
C2 . N2 . H7 . 109.3(18)    no
H6 . N2 . H7 . 109.5(18)    no
C2 . N2 . H8 . 109.6(18)    no
H6 . N2 . H8 . 109.5(18)    no
H7 . N2 . H8 . 109.2(18)    no
C5 . N3 . C7 . 113.5(8)    yes
C5 . N3 . C8 . 109.6(8)    yes
C7 . N3 . C8 . 110.5(8)    yes
C5 . N3 . H15 . 107.4(16)    no
C7 . N3 . H15 . 108.0(16)    no
C8 . N3 . H15 . 107.7(17)    no
C6 . N4 . H20 . 110.1(18)    no
C6 . N4 . H21 . 109.9(18)    no
H20 . N4 . H21 . 109.3(18)    no
C6 . N4 . H22 . 109.8(18)    no
H20 . N4 . H22 . 108.7(18)    no
H21 . N4 . H22 . 109.0(18)    no
C9 . N5 . C11 . 112.9(8)    yes
C9 . N5 . C12 . 109.0(8)    yes
C11 . N5 . C12 . 111.6(8)    yes
C9 . N5 . H29 . 107.2(16)    no
C11 . N5 . H29 . 107.7(16)    no
C12 . N5 . H29 . 108.2(17)    no
C10 . N6 . H34 . 109.7(18)    no
C10 . N6 . H35 . 109.2(18)    no
H34 . N6 . H35 . 109.3(18)    no
C10 . N6 . H36 . 109.4(18)    no
H34 . N6 . H36 . 109.8(18)    no
H35 . N6 . H36 . 109.4(18)    no
N1 . C1 . C2 . 114.9(8)    yes
N1 . C1 . H2 . 108.4    no
C2 . C1 . H2 . 108.6    no
N1 . C1 . H3 . 107.5    no
C2 . C1 . H3 . 108.0    no
H2 . C1 . H3 . 109.4    no
C1 . C2 . N2 . 112.3(8)    yes
C1 . C2 . H4 . 108.7    no
N2 . C2 . H4 . 108.2    no
C1 . C2 . H5 . 109.0    no
N2 . C2 . H5 . 108.7    no
H4 . C2 . H5 . 109.9    no
N1 . C3 . H9 . 108.7    no
N1 . C3 . H10 . 109.2    no
H9 . C3 . H10 . 109.9    no
N1 . C3 . H11 . 109.3    no
H9 . C3 . H11 . 109.8    no
H10 . C3 . H11 . 109.9    no
N1 . C4 . H12 . 109.3    no
N1 . C4 . H13 . 109.4    no
H12 . C4 . H13 . 109.3    no
N1 . C4 . H14 . 109.5    no
H12 . C4 . H14 . 109.9    no
H13 . C4 . H14 . 109.4    no
N3 . C5 . C6 . 114.5(8)    yes
N3 . C5 . H16 . 108.2    no
C6 . C5 . H16 . 108.5    no
N3 . C5 . H17 . 107.7    no
C6 . C5 . H17 . 108.3    no
H16 . C5 . H17 . 109.6    no
C5 . C6 . N4 . 113.3(8)    yes
C5 . C6 . H18 . 108.3    no
N4 . C6 . H18 . 108.5    no
C5 . C6 . H19 . 108.7    no
N4 . C6 . H19 . 108.4    no
H18 . C6 . H19 . 109.5    no
N3 . C7 . H23 . 109.4    no
N3 . C7 . H24 . 109.4    no
H23 . C7 . H24 . 109.5    no
N3 . C7 . H25 . 109.8    no
H23 . C7 . H25 . 109.5    no
H24 . C7 . H25 . 109.3    no
N3 . C8 . H26 . 109.1    no
N3 . C8 . H27 . 109.1    no
H26 . C8 . H27 . 109.5    no
N3 . C8 . H28 . 110.0    no
H26 . C8 . H28 . 109.4    no
H27 . C8 . H28 . 109.7    no
N5 . C9 . C10 . 113.2(8)    yes
N5 . C9 . H30 . 109.1    no
C10 . C9 . H30 . 108.4    no
N5 . C9 . H31 . 108.6    no
C10 . C9 . H31 . 107.9    no
H30 . C9 . H31 . 109.5    no
C9 . C10 . N6 . 112.7(8)    yes
C9 . C10 . H32 . 108.5    no
N6 . C10 . H32 . 108.8    no
C9 . C10 . H33 . 109.0    no
N6 . C10 . H33 . 108.3    no
H32 . C10 . H33 . 109.5    no
N5 . C11 . H37 . 110.0    no
N5 . C11 . H38 . 109.4    no
H37 . C11 . H38 . 109.1    no
N5 . C11 . H39 . 109.2    no
H37 . C11 . H39 . 109.6    no
H38 . C11 . H39 . 109.6    no
N5 . C12 . H40 . 108.7    no
N5 . C12 . H41 . 108.7    no
H40 . C12 . H41 . 109.8    no
N5 . C12 . H42 . 109.2    no
H40 . C12 . H42 . 110.1    no
H41 . C12 . H42 . 110.4    no
O2 . C13 . O1 . 124.8(9)    yes
O2 . C13 . H43 . 117.8    no
O1 . C13 . H43 . 117.4    no
loop_
 _geom_hbond_atom_site_label_D
 _geom_hbond_site_symmetry_D
 _geom_hbond_atom_site_label_H
 _geom_hbond_site_symmetry_H
 _geom_hbond_atom_site_label_A
 _geom_hbond_site_symmetry_A
 _geom_hbond_angle_DHA
 _geom_hbond_distance_DH
 _geom_hbond_distance_HA
 _geom_hbond_distance_DA
 _geom_hbond_publ_flag
N1 . H1 . O2 1_545 159(2) 0.892 1.894 2.745(15)    yes
N3 . H15 . O1 1_545 136(2) 0.893 2.531 3.234(15)    yes
N3 . H15 . O2 1_545 166(2) 0.893 1.920 2.794(15)    yes
N3 . H15 . C13 1_545 162(2) 0.893 2.454 3.315(15)    yes
N4 . H22 . O1 1_545 175(8) 0.891 1.933 2.822(15)    yes
N4 . H22 . O2 1_545 128(6) 0.891 2.576 3.199(15)    yes
N4 . H22 . C13 1_545 155(7) 0.891 2.474 3.301(15)    yes
N5 . H29 . O1 . 179(2) 0.893 1.798 2.691(15)    yes


_iucr_refine_instructions_details
;
#
# Punched on 15/10/19 at 13:45:07
#
#LIST     12                                                                    
BLOCK 
CONT SCALE 
CONT PB   (     1 ,X'S,U'S)  UNTIL C    (    13 ) 
CONT H    (     1 ,X'S,U[ISO]) 
CONT H    (     6 ,X'S,U[ISO])  UNTIL H    (     8 ) 
CONT H    (    15 ,X'S,U[ISO]) 
CONT H    (    20 ,X'S,U[ISO])  UNTIL H    (    22 ) 
CONT H    (    29 ,X'S,U[ISO]) 
CONT H    (    34 ,X'S,U[ISO])  UNTIL H    (    36 ) 
CONT EXTPARAM 
RIDE C   (   1,X'S) H   (   2,X'S) H   (   3,X'S) 
RIDE C   (   2,X'S) H   (   4,X'S) H   (   5,X'S) 
RIDE C   (   3,X'S) H   (   9,X'S) H   (  10,X'S) H   (  11,X'S) 
RIDE C   (   4,X'S) H   (  12,X'S) H   (  13,X'S) H   (  14,X'S) 
RIDE C   (   5,X'S) H   (  16,X'S) H   (  17,X'S) 
RIDE C   (   6,X'S) H   (  18,X'S) H   (  19,X'S) 
RIDE C   (   7,X'S) H   (  23,X'S) H   (  24,X'S) H   (  25,X'S) 
RIDE C   (   8,X'S) H   (  26,X'S) H   (  27,X'S) H   (  28,X'S) 
RIDE C   (   9,X'S) H   (  30,X'S) H   (  31,X'S) 
RIDE C   (  10,X'S) H   (  32,X'S) H   (  33,X'S) 
RIDE C   (  11,X'S) H   (  37,X'S) H   (  38,X'S) H   (  39,X'S) 
RIDE C   (  12,X'S) H   (  40,X'S) H   (  41,X'S) H   (  42,X'S) 
RIDE C   (  13,X'S) H   (  43,X'S) 
END                                                                             
#
# Punched on 15/10/19 at 13:45:07
#
#LIST     16                                                                    
NO 
REM   HREST   START (DO NOT REMOVE THIS LINE) 
REM NO H  NO #H U MULT   DIST 
REM C-H 
REM >4           1.5    .96 DISORDER 
REM 1      1     1.2    .93 C C-H (ACETYLENE) 
REM 1      2     1.2    .93 C-C(H)-C 
REM 1      3     1.2    .98 (C)3-C-H 
REM 2      1     1.2    .93 C=C-H(2) 
REM 2      2     1.2    .97 (C)2-C-(H)2 
REM 3      1     1.5    .96 C-C-(H)3 
REM N-H 
REM >4           1.5    .89 DISORDER 
REM 1      1     1.2    .86 N-N/H 
REM 1      2     1.2    .86 (C)2-N-H 
REM 1      3     1.2    .89 (C)3-N-H 
REM 2      1     1.2    .86 C-N-(H)2 
REM 2      2     1.2    .89 (C)2-N-(H)2 
REM 3      1     1.2    .89 C-H-(H)3 
REM O-H 
REM 1      1     1.5    .82 O-H 
REM 
REM DIST      ESD = 0.02 
REM VIB       ESD = 0.002 
REM ANGLE     ESD = 2.0 
REM 
REM TO ACTIVATE THE VIB RESTRAINTS, REMOVE LEADING REM 
REM POSSIBLY DISORDERED, NO OF H ATOMS=     1 
DIST 0.89, 0.02 = 
CONT N ( 1) TO H(1) 
REST 0.036, 0.002 = H(1,U[ISO]) 
ANGLE 109.54, 2.0 = 
CONT C(1) TO N ( 1) TO H(1) 
CONT C(3) TO N ( 1) TO H(1) 
CONT C(4) TO N ( 1) TO H(1) 
REM POSSIBLY DISORDERED, NO OF H ATOMS=     3 
DIST 0.89, 0.02 = 
CONT N ( 2) TO H(6) 
CONT N ( 2) TO H(7) 
CONT N ( 2) TO H(8) 
REST 0.043, 0.002 = H(6,U[ISO]) 
REST 0.043, 0.002 = H(7,U[ISO]) 
REST 0.043, 0.002 = H(8,U[ISO]) 
ANGLE 109.54, 2.0 = 
CONT C(2) TO N ( 2) TO H(6) 
CONT C(2) TO N ( 2) TO H(7) 
CONT C(2) TO N ( 2) TO H(8) 
ANGLE 0.0, 2.0 = MEAN H(6) TO N ( 2) TO H(7) 
CONT H(6) TO N ( 2) TO H(8) 
CONT H(7) TO N ( 2) TO H(8) 
REM POSSIBLY DISORDERED, NO OF H ATOMS=     1 
DIST 0.89, 0.02 = 
CONT N ( 3) TO H(15) 
REST 0.030, 0.002 = H(15,U[ISO]) 
ANGLE 109.54, 2.0 = 
CONT C(5) TO N ( 3) TO H(15) 
CONT C(7) TO N ( 3) TO H(15) 
CONT C(8) TO N ( 3) TO H(15) 
REM POSSIBLY DISORDERED, NO OF H ATOMS=     3 
DIST 0.89, 0.02 = 
CONT N ( 4) TO H(20) 
CONT N ( 4) TO H(21) 
CONT N ( 4) TO H(22) 
REST 0.035, 0.002 = H(20,U[ISO]) 
REST 0.035, 0.002 = H(21,U[ISO]) 
REST 0.035, 0.002 = H(22,U[ISO]) 
ANGLE 109.54, 2.0 = 
CONT C(6) TO N ( 4) TO H(20) 
CONT C(6) TO N ( 4) TO H(21) 
CONT C(6) TO N ( 4) TO H(22) 
ANGLE 0.0, 2.0 = MEAN H(20) TO N ( 4) TO H(21) 
CONT H(20) TO N ( 4) TO H(22) 
CONT H(21) TO N ( 4) TO H(22) 
REM POSSIBLY DISORDERED, NO OF H ATOMS=     1 
DIST 0.89, 0.02 = 
CONT N ( 5) TO H(29) 
REST 0.030, 0.002 = H(29,U[ISO]) 
ANGLE 109.54, 2.0 = 
CONT C(9) TO N ( 5) TO H(29) 
CONT C(11) TO N ( 5) TO H(29) 
CONT C(12) TO N ( 5) TO H(29) 
REM POSSIBLY DISORDERED, NO OF H ATOMS=     3 
DIST 0.89, 0.02 = 
CONT N ( 6) TO H(34) 
CONT N ( 6) TO H(35) 
CONT N ( 6) TO H(36) 
REST 0.037, 0.002 = H(34,U[ISO]) 
REST 0.037, 0.002 = H(35,U[ISO]) 
REST 0.037, 0.002 = H(36,U[ISO]) 
ANGLE 109.54, 2.0 = 
CONT C(10) TO N ( 6) TO H(34) 
CONT C(10) TO N ( 6) TO H(35) 
CONT C(10) TO N ( 6) TO H(36) 
ANGLE 0.0, 2.0 = MEAN H(34) TO N ( 6) TO H(35) 
CONT H(34) TO N ( 6) TO H(36) 
CONT H(35) TO N ( 6) TO H(36) 
REM   HREST   END (DO NOT REMOVE THIS LINE) 
END                                                                             
;
# looking for ARCHIVE-HKL.CIF 
 
_iucr_refine_reflections_details 
; 
 
# Data was input as F-squared 
# punching LIST  6 as LIST  6 with all keys set 
# NBGNXT=    42 
#LIST   6 
READ NCOEF= 9 TYPE=FIX, F'S = FSQ UNIT=DATA, CHECK=NO L30=NO ARCH=NO 
STORE  NCOEF= 7 
OUTPUT INDICES     /FO/        SIGMA(/FO/) RATIO/JCODE CORRECTIONS SERIAL 
CONT   /FC/ 
INPUT  H           K           L           /FO/        SIGMA(/FO/) JCODE 
CONT   CORRECTIONS SERIAL      /FC/ 
FOR (I4,I4,I4,F10.2,F8.2,F4.0,F7.4,F7.0,F10.2) 
END 
   2   0   0    228.59    2.23  0. 1.0000     0.      0.00 
   3   0   0    262.93    2.70  0. 1.0000     0.      0.00 
   4   0   0    403.37    4.05  0. 1.0000     0.      0.00 
   5   0   0    569.62    5.86  0. 1.0000     0.      0.00 
   6   0   0   2214.91   22.87  0. 1.0000     0.      0.00 
   7   0   0    101.83    4.13  0. 1.0000     0.      0.00 
   8   0   0   1044.00   12.05  0. 1.0000     0.      0.00 
   9   0   0      7.78    2.81  0. 1.0000     0.      0.00 
  10   0   0     33.70    2.95  0. 1.0000     0.      0.00 
  11   0   0    123.33    4.15  0. 1.0000     0.      0.00 
  12   0   0     65.45    5.20  0. 1.0000     0.      0.00 
  13   0   0      2.41    7.62  0. 1.0000     0.      0.00 
 -14   1   0     19.33    5.27  0. 1.0000     0.      0.00 
 -13   1   0     10.32    5.14  0. 1.0000     0.      0.00 
 -12   1   0    179.39    6.39  0. 1.0000     0.      0.00 
 -11   1   0    188.06    6.89  0. 1.0000     0.      0.00 
 -10   1   0    984.79   13.56  0. 1.0000     0.      0.00 
  -9   1   0    156.62   15.32  0. 1.0000     0.      0.00 
  -8   1   0    758.31   14.82  0. 1.0000     0.      0.00 
  -7   1   0    155.87    3.04  0. 1.0000     0.      0.00 
  -6   1   0    174.68    2.64  0. 1.0000     0.      0.00 
  -5   1   0    136.91    2.09  0. 1.0000     0.      0.00 
  -4   1   0   7316.23   83.83  0. 1.0000     0.      0.00 
  -3   1   0   1189.68   11.34  0. 1.0000     0.      0.00 
  -2   1   0    529.42    5.94  0. 1.0000     0.      0.00 
  -1   1   0    334.30    4.71  0. 1.0000     0.      0.00 
   0   1   0   1881.36   50.88  0. 1.0000     0.      0.00 
   1   1   0    560.20    3.96  0. 1.0000     0.      0.00 
   2   1   0     23.23    0.37  0. 1.0000     0.      0.00 
   3   1   0    198.78    2.02  0. 1.0000     0.      0.00 
   4   1   0    111.68    1.52  0. 1.0000     0.      0.00 
   5   1   0    743.37    8.59  0. 1.0000     0.      0.00 
   6   1   0   2280.81   24.73  0. 1.0000     0.      0.00 
   7   1   0   2354.99   25.53  0. 1.0000     0.      0.00 
   8   1   0    113.28    2.74  0. 1.0000     0.      0.00 
   9   1   0    346.45    5.44  0. 1.0000     0.      0.00 
  10   1   0     11.75    3.45  0. 1.0000     0.      0.00 
  11   1   0    478.87   12.95  0. 1.0000     0.      0.00 
  12   1   0     27.05   13.13  0. 1.0000     0.      0.00 
  13   1   0    148.04   24.64  0. 1.0000     0.      0.00 
 -14   2   0     26.25   11.19  0. 1.0000     0.      0.00 
 -13   2   0     20.24   12.71  0. 1.0000     0.      0.00 
 -12   2   0    314.90   29.95  0. 1.0000     0.      0.00 
 -11   2   0    642.86   40.26  0. 1.0000     0.      0.00 
 -10   2   0    249.50    7.63  0. 1.0000     0.      0.00 
  -9   2   0      8.53    2.71  0. 1.0000     0.      0.00 
  -8   2   0    288.12    4.78  0. 1.0000     0.      0.00 
  -7   2   0     13.80    1.38  0. 1.0000     0.      0.00 
  -6   2   0    250.96    2.87  0. 1.0000     0.      0.00 
  -5   2   0   4412.73   50.06  0. 1.0000     0.      0.00 
  -4   2   0   4759.22   54.42  0. 1.0000     0.      0.00 
  -3   2   0   1599.14   15.88  0. 1.0000     0.      0.00 
  -2   2   0    300.31    2.88  0. 1.0000     0.      0.00 
  -1   2   0     20.10    0.32  0. 1.0000     0.      0.00 
   0   2   0    871.88    7.30  0. 1.0000     0.      0.00 
   1   2   0    477.37    3.92  0. 1.0000     0.      0.00 
   2   2   0   2098.09   19.33  0. 1.0000     0.      0.00 
   3   2   0   9574.36   87.36  0. 1.0000     0.      0.00 
   4   2   0    502.40    6.61  0. 1.0000     0.      0.00 
   5   2   0    308.59    3.34  0. 1.0000     0.      0.00 
   6   2   0      7.53    2.04  0. 1.0000     0.      0.00 
   7   2   0   1426.23   15.65  0. 1.0000     0.      0.00 
   8   2   0     24.83    2.92  0. 1.0000     0.      0.00 
   9   2   0     42.05    4.91  0. 1.0000     0.      0.00 
  10   2   0     22.11   17.00  0. 1.0000     0.      0.00 
  11   2   0    355.72   36.74  0. 1.0000     0.      0.00 
  12   2   0     37.00   11.97  0. 1.0000     0.      0.00 
  13   2   0    110.59   10.37  0. 1.0000     0.      0.00 
 -14   3   0     27.62   29.88  0. 1.0000     0.      0.00 
 -13   3   0     35.54   15.30  0. 1.0000     0.      0.00 
 -12   3   0     23.53    7.97  0. 1.0000     0.      0.00 
 -11   3   0     10.22    3.90  0. 1.0000     0.      0.00 
 -10   3   0      9.61    2.76  0. 1.0000     0.      0.00 
  -9   3   0   1170.12   14.61  0. 1.0000     0.      0.00 
  -8   3   0     35.14    1.73  0. 1.0000     0.      0.00 
  -7   3   0    676.89    9.08  0. 1.0000     0.      0.00 
  -6   3   0    328.74    4.50  0. 1.0000     0.      0.00 
  -5   3   0   2757.18   28.00  0. 1.0000     0.      0.00 
  -4   3   0     12.81    0.59  0. 1.0000     0.      0.00 
  -3   3   0    299.85    2.92  0. 1.0000     0.      0.00 
  -2   3   0    570.72    4.87  0. 1.0000     0.      0.00 
  -1   3   0   3201.01   25.20  0. 1.0000     0.      0.00 
   0   3   0    196.08    2.97  0. 1.0000     0.      0.00 
   1   3   0    821.30    7.46  0. 1.0000     0.      0.00 
   2   3   0     35.40    8.07  0. 1.0000     0.      0.00 
   3   3   0   9504.58   88.54  0. 1.0000     0.      0.00 
   4   3   0      2.74    1.27  0. 1.0000     0.      0.00 
   5   3   0    747.75    7.62  0. 1.0000     0.      0.00 
   6   3   0    105.06    2.67  0. 1.0000     0.      0.00 
   7   3   0    318.68    8.80  0. 1.0000     0.      0.00 
   8   3   0    231.36   16.27  0. 1.0000     0.      0.00 
   9   3   0   1467.63   23.23  0. 1.0000     0.      0.00 
  10   3   0     39.55    5.86  0. 1.0000     0.      0.00 
  11   3   0      6.99    5.96  0. 1.0000     0.      0.00 
  12   3   0      8.11    5.51  0. 1.0000     0.      0.00 
 -14   4   0     11.08    9.74  0. 1.0000     0.      0.00 
 -13   4   0    235.85    8.00  0. 1.0000     0.      0.00 
 -12   4   0     17.24    3.51  0. 1.0000     0.      0.00 
 -11   4   0     91.61    3.62  0. 1.0000     0.      0.00 
 -10   4   0      8.53    3.09  0. 1.0000     0.      0.00 
  -9   4   0   2570.31   32.09  0. 1.0000     0.      0.00 
  -8   4   0    844.96   11.82  0. 1.0000     0.      0.00 
  -7   4   0   1275.72   21.77  0. 1.0000     0.      0.00 
  -6   4   0    510.19    5.26  0. 1.0000     0.      0.00 
  -5   4   0     13.42    1.22  0. 1.0000     0.      0.00 
  -4   4   0    611.25    6.70  0. 1.0000     0.      0.00 
  -3   4   0     85.14    1.43  0. 1.0000     0.      0.00 
  -2   4   0   2808.89   33.56  0. 1.0000     0.      0.00 
  -1   4   0   9999.99   84.58  0. 1.0000     0.      0.00 
   0   4   0    132.82    3.48  0. 1.0000     0.      0.00 
   1   4   0     35.12    1.04  0. 1.0000     0.      0.00 
   2   4   0    623.37    6.09  0. 1.0000     0.      0.00 
   3   4   0     66.70    1.65  0. 1.0000     0.      0.00 
   4   4   0    259.50    2.88  0. 1.0000     0.      0.00 
   5   4   0    650.09    9.36  0. 1.0000     0.      0.00 
   6   4   0   1106.97   12.27  0. 1.0000     0.      0.00 
   7   4   0     71.95    3.62  0. 1.0000     0.      0.00 
   8   4   0     25.59    3.12  0. 1.0000     0.      0.00 
   9   4   0    146.71    4.30  0. 1.0000     0.      0.00 
  10   4   0    500.07    8.05  0. 1.0000     0.      0.00 
  11   4   0      4.45    5.34  0. 1.0000     0.      0.00 
  12   4   0     20.36    8.80  0. 1.0000     0.      0.00 
 -14   5   0      9.31    6.18  0. 1.0000     0.      0.00 
 -13   5   0    217.10    8.76  0. 1.0000     0.      0.00 
 -12   5   0    557.67   15.82  0. 1.0000     0.      0.00 
 -11   5   0    140.01    7.66  0. 1.0000     0.      0.00 
  -9   5   0    312.96   18.10  0. 1.0000     0.      0.00 
  -8   5   0    595.40    7.83  0. 1.0000     0.      0.00 
  -7   5   0      8.85    2.02  0. 1.0000     0.      0.00 
  -6   5   0    669.31    7.53  0. 1.0000     0.      0.00 
  -5   5   0    158.72    4.26  0. 1.0000     0.      0.00 
  -4   5   0    190.10    2.39  0. 1.0000     0.      0.00 
  -3   5   0    582.00    5.84  0. 1.0000     0.      0.00 
  -2   5   0   6601.84   59.54  0. 1.0000     0.      0.00 
  -1   5   0    541.06   11.31  0. 1.0000     0.      0.00 
   0   5   0     85.20    1.48  0. 1.0000     0.      0.00 
   1   5   0      6.94    0.56  0. 1.0000     0.      0.00 
   2   5   0    355.96    3.41  0. 1.0000     0.      0.00 
   3   5   0    255.40    8.72  0. 1.0000     0.      0.00 
   4   5   0   1274.44   12.66  0. 1.0000     0.      0.00 
   5   5   0    681.94    9.11  0. 1.0000     0.      0.00 
   6   5   0   1930.94   19.65  0. 1.0000     0.      0.00 
   7   5   0      3.19    1.91  0. 1.0000     0.      0.00 
   8   5   0    307.42    5.56  0. 1.0000     0.      0.00 
   9   5   0     82.83    5.26  0. 1.0000     0.      0.00 
  10   5   0    441.05   12.86  0. 1.0000     0.      0.00 
  11   5   0      4.57   18.26  0. 1.0000     0.      0.00 
 -14   6   0      7.32   24.73  0. 1.0000     0.      0.00 
 -13   6   0      0.00   58.63  0. 1.0000     0.      0.00 
 -11   6   0    260.71   11.81  0. 1.0000     0.      0.00 
 -10   6   0     56.84    3.61  0. 1.0000     0.      0.00 
  -9   6   0    111.97    3.16  0. 1.0000     0.      0.00 
  -8   6   0     62.06    2.09  0. 1.0000     0.      0.00 
  -7   6   0      4.03    1.41  0. 1.0000     0.      0.00 
  -6   6   0   6065.07   55.47  0. 1.0000     0.      0.00 
  -5   6   0    101.89   11.02  0. 1.0000     0.      0.00 
  -4   6   0    110.46    2.05  0. 1.0000     0.      0.00 
  -3   6   0    300.23    3.42  0. 1.0000     0.      0.00 
  -2   6   0    312.98    3.48  0. 1.0000     0.      0.00 
  -1   6   0    794.84    8.64  0. 1.0000     0.      0.00 
   0   6   0    250.13    3.21  0. 1.0000     0.      0.00 
   1   6   0     14.53    2.61  0. 1.0000     0.      0.00 
   2   6   0   3057.43   27.71  0. 1.0000     0.      0.00 
   3   6   0      4.49    1.72  0. 1.0000     0.      0.00 
   4   6   0     59.52    1.62  0. 1.0000     0.      0.00 
   5   6   0    213.77    3.51  0. 1.0000     0.      0.00 
   6   6   0    408.48    5.80  0. 1.0000     0.      0.00 
   7   6   0      9.46    3.65  0. 1.0000     0.      0.00 
   8   6   0     12.36   12.79  0. 1.0000     0.      0.00 
   9   6   0    147.80   29.23  0. 1.0000     0.      0.00 
  10   6   0    104.73   20.76  0. 1.0000     0.      0.00 
  11   6   0      7.31   14.48  0. 1.0000     0.      0.00 
 -14   7   0     38.88   17.90  0. 1.0000     0.      0.00 
 -13   7   0     32.24   10.29  0. 1.0000     0.      0.00 
 -12   7   0     15.79    7.66  0. 1.0000     0.      0.00 
 -11   7   0      7.31    3.51  0. 1.0000     0.      0.00 
 -10   7   0    681.74    5.74  0. 1.0000     0.      0.00 
  -9   7   0    253.60    3.39  0. 1.0000     0.      0.00 
  -8   7   0     10.60    2.26  0. 1.0000     0.      0.00 
  -7   7   0      0.00    3.03  0. 1.0000     0.      0.00 
  -6   7   0   2974.21   33.52  0. 1.0000     0.      0.00 
  -5   7   0    762.94   17.35  0. 1.0000     0.      0.00 
  -4   7   0     64.71    2.30  0. 1.0000     0.      0.00 
  -3   7   0      0.00    3.34  0. 1.0000     0.      0.00 
  -2   7   0      3.04    1.86  0. 1.0000     0.      0.00 
  -1   7   0    494.28    8.41  0. 1.0000     0.      0.00 
   0   7   0   1573.29   17.15  0. 1.0000     0.      0.00 
   1   7   0   2066.27   20.17  0. 1.0000     0.      0.00 
   2   7   0   1579.24   16.25  0. 1.0000     0.      0.00 
   3   7   0    164.21    4.30  0. 1.0000     0.      0.00 
   4   7   0    309.58    4.61  0. 1.0000     0.      0.00 
   5   7   0    693.33   11.57  0. 1.0000     0.      0.00 
   6   7   0     86.52   19.17  0. 1.0000     0.      0.00 
   7   7   0    144.02   30.34  0. 1.0000     0.      0.00 
   8   7   0    413.23   15.91  0. 1.0000     0.      0.00 
   9   7   0    234.73    9.57  0. 1.0000     0.      0.00 
  10   7   0     15.98    8.41  0. 1.0000     0.      0.00 
 -13   8   0     30.65    4.95  0. 1.0000     0.      0.00 
 -12   8   0     46.61    5.12  0. 1.0000     0.      0.00 
 -11   8   0     97.34    5.00  0. 1.0000     0.      0.00 
 -10   8   0    764.46   10.53  0. 1.0000     0.      0.00 
  -9   8   0   1129.62   16.77  0. 1.0000     0.      0.00 
  -8   8   0    336.12   21.29  0. 1.0000     0.      0.00 
  -7   8   0      1.58   12.17  0. 1.0000     0.      0.00 
  -6   8   0     60.40    2.80  0. 1.0000     0.      0.00 
  -5   8   0    450.77    5.45  0. 1.0000     0.      0.00 
  -4   8   0    136.39    2.61  0. 1.0000     0.      0.00 
  -3   8   0   2621.16   24.78  0. 1.0000     0.      0.00 
  -2   8   0    290.49    3.49  0. 1.0000     0.      0.00 
  -1   8   0      0.00    2.46  0. 1.0000     0.      0.00 
   0   8   0    124.90    3.04  0. 1.0000     0.      0.00 
   1   8   0   1802.95   19.29  0. 1.0000     0.      0.00 
   2   8   0    141.70    3.87  0. 1.0000     0.      0.00 
   3   8   0      0.00   14.85  0. 1.0000     0.      0.00 
   4   8   0      0.00   25.97  0. 1.0000     0.      0.00 
   5   8   0    609.66   11.46  0. 1.0000     0.      0.00 
   6   8   0      0.00    5.06  0. 1.0000     0.      0.00 
   7   8   0    237.28    8.21  0. 1.0000     0.      0.00 
   8   8   0      3.68    6.53  0. 1.0000     0.      0.00 
   9   8   0     80.78    5.87  0. 1.0000     0.      0.00 
 -13   9   0    141.70   15.28  0. 1.0000     0.      0.00 
 -12   9   0     50.70   19.33  0. 1.0000     0.      0.00 
 -11   9   0     85.91   58.38  0. 1.0000     0.      0.00 
 -10   9   0      5.11   11.07  0. 1.0000     0.      0.00 
  -9   9   0    386.47    8.04  0. 1.0000     0.      0.00 
  -8   9   0     54.34    3.59  0. 1.0000     0.      0.00 
  -7   9   0    125.14    3.43  0. 1.0000     0.      0.00 
  -6   9   0    333.78    4.80  0. 1.0000     0.      0.00 
  -5   9   0     36.48    1.86  0. 1.0000     0.      0.00 
  -4   9   0     55.59    2.37  0. 1.0000     0.      0.00 
  -3   9   0   4416.90   44.60  0. 1.0000     0.      0.00 
  -2   9   0      0.00    2.93  0. 1.0000     0.      0.00 
  -1   9   0    325.35    5.68  0. 1.0000     0.      0.00 
   0   9   0     39.97   10.50  0. 1.0000     0.      0.00 
   1   9   0     79.19   18.92  0. 1.0000     0.      0.00 
   2   9   0    326.64    5.97  0. 1.0000     0.      0.00 
   3   9   0    803.90    9.60  0. 1.0000     0.      0.00 
   4   9   0     22.36    4.33  0. 1.0000     0.      0.00 
   5   9   0    294.20    6.28  0. 1.0000     0.      0.00 
   6   9   0      6.27    3.89  0. 1.0000     0.      0.00 
   7   9   0     13.34    6.10  0. 1.0000     0.      0.00 
   8   9   0    244.66    9.02  0. 1.0000     0.      0.00 
   9   9   0     21.72   22.76  0. 1.0000     0.      0.00 
 -12  10   0     65.33   19.41  0. 1.0000     0.      0.00 
 -10  10   0    242.77    5.28  0. 1.0000     0.      0.00 
  -9  10   0      0.00    2.96  0. 1.0000     0.      0.00 
  -8  10   0     39.83    2.20  0. 1.0000     0.      0.00 
  -7  10   0   1525.61   14.49  0. 1.0000     0.      0.00 
  -6  10   0    142.73    4.17  0. 1.0000     0.      0.00 
  -5  10   0     40.07    3.66  0. 1.0000     0.      0.00 
  -4  10   0      0.00    4.52  0. 1.0000     0.      0.00 
  -3  10   0    202.75   32.42  0. 1.0000     0.      0.00 
  -2  10   0    370.83   23.36  0. 1.0000     0.      0.00 
  -1  10   0     43.05    4.24  0. 1.0000     0.      0.00 
   0  10   0    216.93    5.09  0. 1.0000     0.      0.00 
   1  10   0    143.54    4.56  0. 1.0000     0.      0.00 
   2  10   0     79.91    3.24  0. 1.0000     0.      0.00 
   3  10   0    307.32    4.73  0. 1.0000     0.      0.00 
   4  10   0    545.79   11.09  0. 1.0000     0.      0.00 
   5  10   0      3.29    5.89  0. 1.0000     0.      0.00 
   6  10   0     25.44    8.50  0. 1.0000     0.      0.00 
   7  10   0     16.21   20.75  0. 1.0000     0.      0.00 
   8  10   0    119.47   77.82  0. 1.0000     0.      0.00 
 -11  11   0     12.60    4.69  0. 1.0000     0.      0.00 
 -10  11   0     54.64    5.24  0. 1.0000     0.      0.00 
  -9  11   0     28.27    9.26  0. 1.0000     0.      0.00 
  -8  11   0    411.79   10.44  0. 1.0000     0.      0.00 
  -7  11   0    407.87   18.87  0. 1.0000     0.      0.00 
  -6  11   0    555.46   59.37  0. 1.0000     0.      0.00 
  -5  11   0      0.00   36.02  0. 1.0000     0.      0.00 
  -4  11   0      0.00    6.40  0. 1.0000     0.      0.00 
  -3  11   0    222.68    5.64  0. 1.0000     0.      0.00 
  -2  11   0    403.54    7.68  0. 1.0000     0.      0.00 
  -1  11   0    429.35    7.13  0. 1.0000     0.      0.00 
   0  11   0   1363.64   15.23  0. 1.0000     0.      0.00 
   1  11   0      4.51    3.28  0. 1.0000     0.      0.00 
   2  11   0    113.27    5.05  0. 1.0000     0.      0.00 
   3  11   0     74.51    6.73  0. 1.0000     0.      0.00 
   4  11   0    398.06   20.68  0. 1.0000     0.      0.00 
   5  11   0     10.14   29.67  0. 1.0000     0.      0.00 
   6  11   0     87.99   37.15  0. 1.0000     0.      0.00 
 -11  12   0     14.06   31.86  0. 1.0000     0.      0.00 
 -10  12   0     90.11   31.17  0. 1.0000     0.      0.00 
  -8  12   0     29.98   52.07  0. 1.0000     0.      0.00 
  -7  12   0    251.07   15.75  0. 1.0000     0.      0.00 
  -6  12   0     55.19   10.37  0. 1.0000     0.      0.00 
  -5  12   0      0.00    6.54  0. 1.0000     0.      0.00 
  -4  12   0    382.72    8.82  0. 1.0000     0.      0.00 
  -3  12   0     34.54    3.12  0. 1.0000     0.      0.00 
  -2  12   0     60.03    4.71  0. 1.0000     0.      0.00 
  -1  12   0      3.04    5.80  0. 1.0000     0.      0.00 
   0  12   0    549.68   10.31  0. 1.0000     0.      0.00 
   1  12   0     53.97   17.98  0. 1.0000     0.      0.00 
   2  12   0     31.39   35.37  0. 1.0000     0.      0.00 
   3  12   0     94.34   48.17  0. 1.0000     0.      0.00 
   4  12   0     90.62   16.26  0. 1.0000     0.      0.00 
   5  12   0      0.00   11.40  0. 1.0000     0.      0.00 
 -10  13   0     60.96   21.43  0. 1.0000     0.      0.00 
  -9  13   0     21.38   13.97  0. 1.0000     0.      0.00 
  -8  13   0     11.40    8.05  0. 1.0000     0.      0.00 
  -7  13   0    290.96    7.39  0. 1.0000     0.      0.00 
  -6  13   0     98.77    5.00  0. 1.0000     0.      0.00 
  -5  13   0     72.39    4.93  0. 1.0000     0.      0.00 
  -4  13   0    627.06   10.81  0. 1.0000     0.      0.00 
  -3  13   0     12.33    7.44  0. 1.0000     0.      0.00 
  -2  13   0     15.38   16.31  0. 1.0000     0.      0.00 
   0  13   0      0.00   37.37  0. 1.0000     0.      0.00 
   1  13   0    111.50   16.02  0. 1.0000     0.      0.00 
   2  13   0    146.84    9.89  0. 1.0000     0.      0.00 
   3  13   0     81.07    8.81  0. 1.0000     0.      0.00 
   4  13   0      2.76   22.74  0. 1.0000     0.      0.00 
  -8  14   0     15.02    5.80  0. 1.0000     0.      0.00 
  -7  14   0     10.86    8.49  0. 1.0000     0.      0.00 
  -6  14   0     86.33   12.47  0. 1.0000     0.      0.00 
  -5  14   0    259.30   36.94  0. 1.0000     0.      0.00 
  -4  14   0     13.71   51.99  0. 1.0000     0.      0.00 
  -3  14   0     21.77   27.49  0. 1.0000     0.      0.00 
  -2  14   0      2.65   15.19  0. 1.0000     0.      0.00 
  -1  14   0     51.92   10.37  0. 1.0000     0.      0.00 
   0  14   0      6.63    6.91  0. 1.0000     0.      0.00 
   1  14   0    116.21    6.38  0. 1.0000     0.      0.00 
   2  14   0     53.08   22.97  0. 1.0000     0.      0.00 
  -5  15   0      0.00   20.74  0. 1.0000     0.      0.00 
  -4  15   0    233.78   13.26  0. 1.0000     0.      0.00 
  -3  15   0    124.51    9.36  0. 1.0000     0.      0.00 
  -2  15   0      9.42    5.72  0. 1.0000     0.      0.00 
   2 -15   1      0.00    5.78  0. 1.0000     0.      0.00 
   3 -15   1      0.00    8.38  0. 1.0000     0.      0.00 
   4 -15   1     39.12   11.75  0. 1.0000     0.      0.00 
   5 -15   1     23.44   20.36  0. 1.0000     0.      0.00 
  -2 -14   1     35.29   16.12  0. 1.0000     0.      0.00 
  -1 -14   1     20.80    5.83  0. 1.0000     0.      0.00 
   0 -14   1     50.28    7.15  0. 1.0000     0.      0.00 
   1 -14   1      5.74    9.62  0. 1.0000     0.      0.00 
   2 -14   1      5.14   13.07  0. 1.0000     0.      0.00 
   3 -14   1     30.83   33.52  0. 1.0000     0.      0.00 
   5 -14   1      0.00   26.81  0. 1.0000     0.      0.00 
   6 -14   1     15.99   11.23  0. 1.0000     0.      0.00 
   7 -14   1     50.22    8.46  0. 1.0000     0.      0.00 
   8 -14   1     73.59    6.00  0. 1.0000     0.      0.00 
  -4 -13   1     58.27   18.16  0. 1.0000     0.      0.00 
  -3 -13   1      8.05    8.12  0. 1.0000     0.      0.00 
  -2 -13   1      4.69    9.15  0. 1.0000     0.      0.00 
  -1 -13   1      8.20   13.11  0. 1.0000     0.      0.00 
   0 -13   1      0.00   40.63  0. 1.0000     0.      0.00 
   2 -13   1     18.32   13.25  0. 1.0000     0.      0.00 
   3 -13   1     28.03    7.62  0. 1.0000     0.      0.00 
   4 -13   1    171.20    6.45  0. 1.0000     0.      0.00 
   5 -13   1    178.37    5.36  0. 1.0000     0.      0.00 
   6 -13   1      0.00    3.51  0. 1.0000     0.      0.00 
   7 -13   1      8.82    5.75  0. 1.0000     0.      0.00 
   8 -13   1     50.31    7.89  0. 1.0000     0.      0.00 
   9 -13   1      0.00   12.15  0. 1.0000     0.      0.00 
  10 -13   1     32.52   21.09  0. 1.0000     0.      0.00 
  -5 -12   1     72.51   11.77  0. 1.0000     0.      0.00 
  -4 -12   1      0.00   15.64  0. 1.0000     0.      0.00 
  -3 -12   1      0.00   38.75  0. 1.0000     0.      0.00 
  -2 -12   1     18.25   35.51  0. 1.0000     0.      0.00 
  -1 -12   1     45.46   15.51  0. 1.0000     0.      0.00 
   0 -12   1     93.87    6.38  0. 1.0000     0.      0.00 
   1 -12   1     88.34    6.17  0. 1.0000     0.      0.00 
   2 -12   1     36.51    4.12  0. 1.0000     0.      0.00 
   3 -12   1    243.91    5.12  0. 1.0000     0.      0.00 
   4 -12   1     54.86    5.17  0. 1.0000     0.      0.00 
   5 -12   1      3.35    6.45  0. 1.0000     0.      0.00 
   6 -12   1      6.06    9.76  0. 1.0000     0.      0.00 
   7 -12   1    144.21   19.17  0. 1.0000     0.      0.00 
  10 -12   1      9.20   35.07  0. 1.0000     0.      0.00 
  11 -12   1    357.86   28.50  0. 1.0000     0.      0.00 
  -6 -11   1     10.67   50.55  0. 1.0000     0.      0.00 
  -5 -11   1     17.65   24.93  0. 1.0000     0.      0.00 
  -4 -11   1      4.78   16.82  0. 1.0000     0.      0.00 
  -3 -11   1      3.62    6.22  0. 1.0000     0.      0.00 
  -2 -11   1      0.00    4.56  0. 1.0000     0.      0.00 
  -1 -11   1    227.85    4.41  0. 1.0000     0.      0.00 
   0 -11   1      4.57    2.23  0. 1.0000     0.      0.00 
   1 -11   1    219.98    4.51  0. 1.0000     0.      0.00 
   2 -11   1    101.27    3.86  0. 1.0000     0.      0.00 
   3 -11   1     73.71    4.64  0. 1.0000     0.      0.00 
   4 -11   1    124.44    6.49  0. 1.0000     0.      0.00 
   5 -11   1      1.01   23.04  0. 1.0000     0.      0.00 
   6 -11   1     32.10   50.55  0. 1.0000     0.      0.00 
   7 -11   1    656.46   26.57  0. 1.0000     0.      0.00 
   8 -11   1    159.72    7.78  0. 1.0000     0.      0.00 
   9 -11   1     13.80   11.28  0. 1.0000     0.      0.00 
  10 -11   1      8.19    4.95  0. 1.0000     0.      0.00 
  11 -11   1     50.10    4.49  0. 1.0000     0.      0.00 
  12 -11   1      6.93   21.30  0. 1.0000     0.      0.00 
  -8 -10   1     14.62   51.04  0. 1.0000     0.      0.00 
  -7 -10   1     17.08   20.95  0. 1.0000     0.      0.00 
  -6 -10   1      6.45    9.10  0. 1.0000     0.      0.00 
  -5 -10   1     80.86    6.56  0. 1.0000     0.      0.00 
  -4 -10   1      6.58    4.91  0. 1.0000     0.      0.00 
  -3 -10   1     88.08    2.91  0. 1.0000     0.      0.00 
  -2 -10   1    218.92    4.05  0. 1.0000     0.      0.00 
  -1 -10   1     84.00    3.65  0. 1.0000     0.      0.00 
   0 -10   1     10.32    3.24  0. 1.0000     0.      0.00 
   1 -10   1     19.98    3.89  0. 1.0000     0.      0.00 
   2 -10   1     53.84   19.78  0. 1.0000     0.      0.00 
   3 -10   1    263.73   36.64  0. 1.0000     0.      0.00 
   4 -10   1     19.95    4.62  0. 1.0000     0.      0.00 
   5 -10   1      6.75    3.49  0. 1.0000     0.      0.00 
   6 -10   1    462.95    8.07  0. 1.0000     0.      0.00 
   7 -10   1    286.86    4.95  0. 1.0000     0.      0.00 
   8 -10   1    123.22    3.11  0. 1.0000     0.      0.00 
   9 -10   1      7.85    2.97  0. 1.0000     0.      0.00 
  10 -10   1     11.55    4.43  0. 1.0000     0.      0.00 
  11 -10   1     10.07   14.86  0. 1.0000     0.      0.00 
  12 -10   1     10.70   16.63  0. 1.0000     0.      0.00 
  -9  -9   1     31.83   21.16  0. 1.0000     0.      0.00 
  -8  -9   1     13.54    7.76  0. 1.0000     0.      0.00 
  -7  -9   1     19.92    5.94  0. 1.0000     0.      0.00 
  -6  -9   1     20.58    3.89  0. 1.0000     0.      0.00 
  -5  -9   1     48.28    4.13  0. 1.0000     0.      0.00 
  -4  -9   1    227.09    5.49  0. 1.0000     0.      0.00 
  -3  -9   1      2.34    3.30  0. 1.0000     0.      0.00 
  -2  -9   1    323.39    9.15  0. 1.0000     0.      0.00 
  -1  -9   1     65.68   10.57  0. 1.0000     0.      0.00 
   0  -9   1     61.13    9.07  0. 1.0000     0.      0.00 
   1  -9   1     16.34    3.13  0. 1.0000     0.      0.00 
   2  -9   1    809.32   11.91  0. 1.0000     0.      0.00 
   3  -9   1     26.26    2.73  0. 1.0000     0.      0.00 
   4  -9   1    678.56    9.42  0. 1.0000     0.      0.00 
   5  -9   1     66.74    2.05  0. 1.0000     0.      0.00 
   6  -9   1    100.32    2.70  0. 1.0000     0.      0.00 
   7  -9   1    127.52    3.57  0. 1.0000     0.      0.00 
   8  -9   1     23.16    3.24  0. 1.0000     0.      0.00 
   9  -9   1      4.94    5.16  0. 1.0000     0.      0.00 
  10  -9   1    593.54   19.90  0. 1.0000     0.      0.00 
  12  -9   1     15.16   21.60  0. 1.0000     0.      0.00 
  13  -9   1      0.00   14.20  0. 1.0000     0.      0.00 
  -9  -8   1      7.90    5.04  0. 1.0000     0.      0.00 
  -8  -8   1    114.17    7.33  0. 1.0000     0.      0.00 
  -7  -8   1      0.56    6.83  0. 1.0000     0.      0.00 
  -6  -8   1    143.45    6.49  0. 1.0000     0.      0.00 
  -5  -8   1     17.11    5.13  0. 1.0000     0.      0.00 
  -4  -8   1      0.00   25.79  0. 1.0000     0.      0.00 
  -3  -8   1      9.80   14.80  0. 1.0000     0.      0.00 
  -2  -8   1    256.25    5.27  0. 1.0000     0.      0.00 
  -1  -8   1      8.29    2.58  0. 1.0000     0.      0.00 
   0  -8   1     70.64    2.67  0. 1.0000     0.      0.00 
   1  -8   1    199.64    3.61  0. 1.0000     0.      0.00 
   2  -8   1    904.68   10.88  0. 1.0000     0.      0.00 
   3  -8   1     52.66    1.98  0. 1.0000     0.      0.00 
   4  -8   1    154.72    3.07  0. 1.0000     0.      0.00 
   5  -8   1     18.33    2.23  0. 1.0000     0.      0.00 
   6  -8   1    117.09    3.38  0. 1.0000     0.      0.00 
   7  -8   1      1.87    9.64  0. 1.0000     0.      0.00 
   8  -8   1      0.00   13.14  0. 1.0000     0.      0.00 
   9  -8   1    567.78   12.14  0. 1.0000     0.      0.00 
  10  -8   1    760.05   10.29  0. 1.0000     0.      0.00 
  11  -8   1     94.90    5.18  0. 1.0000     0.      0.00 
  12  -8   1     14.97    5.17  0. 1.0000     0.      0.00 
  13  -8   1      6.33    4.80  0. 1.0000     0.      0.00 
 -10  -7   1     25.30    7.74  0. 1.0000     0.      0.00 
  -9  -7   1     12.00    7.71  0. 1.0000     0.      0.00 
  -8  -7   1    120.98   13.49  0. 1.0000     0.      0.00 
  -7  -7   1     65.34   21.93  0. 1.0000     0.      0.00 
  -6  -7   1     18.58   14.76  0. 1.0000     0.      0.00 
  -5  -7   1      7.47    4.50  0. 1.0000     0.      0.00 
  -4  -7   1      7.01    2.43  0. 1.0000     0.      0.00 
  -3  -7   1      7.44    2.09  0. 1.0000     0.      0.00 
  -2  -7   1    613.45    8.28  0. 1.0000     0.      0.00 
  -1  -7   1    902.39   11.07  0. 1.0000     0.      0.00 
   0  -7   1    144.79    2.95  0. 1.0000     0.      0.00 
   1  -7   1    257.70    4.08  0. 1.0000     0.      0.00 
   2  -7   1    186.56    3.05  0. 1.0000     0.      0.00 
   3  -7   1    102.39    2.35  0. 1.0000     0.      0.00 
   4  -7   1      8.00    1.54  0. 1.0000     0.      0.00 
   5  -7   1    965.62   20.20  0. 1.0000     0.      0.00 
   6  -7   1    456.31   13.98  0. 1.0000     0.      0.00 
   7  -7   1    342.19    5.22  0. 1.0000     0.      0.00 
   8  -7   1     12.28    2.51  0. 1.0000     0.      0.00 
   9  -7   1    362.77    3.91  0. 1.0000     0.      0.00 
  10  -7   1    110.54    3.37  0. 1.0000     0.      0.00 
  11  -7   1     12.02    3.79  0. 1.0000     0.      0.00 
  12  -7   1     12.84    7.19  0. 1.0000     0.      0.00 
  13  -7   1     76.76   10.52  0. 1.0000     0.      0.00 
  14  -7   1     12.75   19.59  0. 1.0000     0.      0.00 
 -11  -6   1      6.95   13.99  0. 1.0000     0.      0.00 
 -10  -6   1      5.82   33.04  0. 1.0000     0.      0.00 
  -9  -6   1     13.57   33.10  0. 1.0000     0.      0.00 
  -8  -6   1     21.61   11.74  0. 1.0000     0.      0.00 
  -7  -6   1      8.16    3.67  0. 1.0000     0.      0.00 
  -6  -6   1     76.28    3.25  0. 1.0000     0.      0.00 
  -5  -6   1    271.34    4.24  0. 1.0000     0.      0.00 
  -4  -6   1     28.80    1.37  0. 1.0000     0.      0.00 
  -3  -6   1    367.73    5.09  0. 1.0000     0.      0.00 
  -2  -6   1    135.31    2.43  0. 1.0000     0.      0.00 
  -1  -6   1    697.54    8.69  0. 1.0000     0.      0.00 
   0  -6   1     11.13    1.08  0. 1.0000     0.      0.00 
   1  -6   1    482.20    5.28  0. 1.0000     0.      0.00 
   2  -6   1    131.55    2.14  0. 1.0000     0.      0.00 
   3  -6   1      7.32    1.89  0. 1.0000     0.      0.00 
   4  -6   1     11.31    1.54  0. 1.0000     0.      0.00 
   5  -6   1   3611.28   33.13  0. 1.0000     0.      0.00 
   6  -6   1     66.00   15.90  0. 1.0000     0.      0.00 
   7  -6   1    216.34    2.35  0. 1.0000     0.      0.00 
   8  -6   1      1.95    1.81  0. 1.0000     0.      0.00 
   9  -6   1      0.58    2.67  0. 1.0000     0.      0.00 
  10  -6   1      0.50    3.58  0. 1.0000     0.      0.00 
  11  -6   1    110.06   12.08  0. 1.0000     0.      0.00 
  14  -6   1     16.29   28.91  0. 1.0000     0.      0.00 
 -11  -5   1     15.02   21.66  0. 1.0000     0.      0.00 
 -10  -5   1     18.30    8.22  0. 1.0000     0.      0.00 
  -9  -5   1     30.13    5.43  0. 1.0000     0.      0.00 
  -8  -5   1     55.31    3.39  0. 1.0000     0.      0.00 
  -7  -5   1     38.33    2.20  0. 1.0000     0.      0.00 
  -6  -5   1      4.97    2.12  0. 1.0000     0.      0.00 
  -5  -5   1   1217.78   15.85  0. 1.0000     0.      0.00 
  -4  -5   1    214.37    3.58  0. 1.0000     0.      0.00 
  -3  -5   1    280.88    3.94  0. 1.0000     0.      0.00 
  -2  -5   1     12.53    0.76  0. 1.0000     0.      0.00 
  -1  -5   1     14.10    0.62  0. 1.0000     0.      0.00 
   0  -5   1     10.48    0.80  0. 1.0000     0.      0.00 
   1  -5   1   2513.97   23.49  0. 1.0000     0.      0.00 
   2  -5   1    932.29   26.04  0. 1.0000     0.      0.00 
   3  -5   1    155.38    3.21  0. 1.0000     0.      0.00 
   4  -5   1    254.32    2.65  0. 1.0000     0.      0.00 
   5  -5   1    893.70    8.72  0. 1.0000     0.      0.00 
   6  -5   1     23.69    2.89  0. 1.0000     0.      0.00 
   7  -5   1     12.69    2.02  0. 1.0000     0.      0.00 
   8  -5   1    230.78    5.49  0. 1.0000     0.      0.00 
   9  -5   1    324.06   19.90  0. 1.0000     0.      0.00 
  10  -5   1    222.93   32.68  0. 1.0000     0.      0.00 
  11  -5   1     40.19    6.47  0. 1.0000     0.      0.00 
  12  -5   1    389.73   11.21  0. 1.0000     0.      0.00 
  13  -5   1    194.62    7.85  0. 1.0000     0.      0.00 
  14  -5   1      5.51    5.95  0. 1.0000     0.      0.00 
 -12  -4   1      7.43    9.60  0. 1.0000     0.      0.00 
 -11  -4   1     10.22    5.66  0. 1.0000     0.      0.00 
 -10  -4   1      7.90    3.27  0. 1.0000     0.      0.00 
  -9  -4   1    199.72    4.72  0. 1.0000     0.      0.00 
  -8  -4   1     21.05    3.20  0. 1.0000     0.      0.00 
  -7  -4   1     51.75    2.95  0. 1.0000     0.      0.00 
  -6  -4   1    299.91    5.44  0. 1.0000     0.      0.00 
  -5  -4   1    232.79    4.56  0. 1.0000     0.      0.00 
  -4  -4   1     70.48    1.50  0. 1.0000     0.      0.00 
  -3  -4   1    172.04    2.27  0. 1.0000     0.      0.00 
  -2  -4   1     62.31    2.60  0. 1.0000     0.      0.00 
  -1  -4   1      4.83    0.98  0. 1.0000     0.      0.00 
   0  -4   1    674.29    6.85  0. 1.0000     0.      0.00 
   1  -4   1   1934.76   38.99  0. 1.0000     0.      0.00 
   2  -4   1   3022.32   34.47  0. 1.0000     0.      0.00 
   3  -4   1     44.07    1.25  0. 1.0000     0.      0.00 
   4  -4   1     25.74    2.27  0. 1.0000     0.      0.00 
   5  -4   1     69.15    1.50  0. 1.0000     0.      0.00 
   6  -4   1     19.64    1.00  0. 1.0000     0.      0.00 
   7  -4   1      5.59    2.52  0. 1.0000     0.      0.00 
   8  -4   1   2979.67   35.80  0. 1.0000     0.      0.00 
   9  -4   1    222.43    3.90  0. 1.0000     0.      0.00 
  10  -4   1      9.43    3.02  0. 1.0000     0.      0.00 
  11  -4   1      7.05    3.11  0. 1.0000     0.      0.00 
  12  -4   1     72.05    4.15  0. 1.0000     0.      0.00 
  13  -4   1      5.73    5.87  0. 1.0000     0.      0.00 
  14  -4   1     49.94    9.27  0. 1.0000     0.      0.00 
 -12  -3   1     14.12    5.29  0. 1.0000     0.      0.00 
 -11  -3   1     17.37    5.81  0. 1.0000     0.      0.00 
 -10  -3   1    213.93    7.44  0. 1.0000     0.      0.00 
  -9  -3   1    111.92    6.17  0. 1.0000     0.      0.00 
  -8  -3   1    281.64   14.48  0. 1.0000     0.      0.00 
  -7  -3   1      2.14    6.03  0. 1.0000     0.      0.00 
  -6  -3   1      2.43    2.23  0. 1.0000     0.      0.00 
  -5  -3   1     65.66    3.33  0. 1.0000     0.      0.00 
  -4  -3   1    114.38    1.74  0. 1.0000     0.      0.00 
  -3  -3   1    680.67   31.66  0. 1.0000     0.      0.00 
  -2  -3   1   3118.43   26.39  0. 1.0000     0.      0.00 
  -1  -3   1      1.14    2.37  0. 1.0000     0.      0.00 
   0  -3   1    372.14    3.84  0. 1.0000     0.      0.00 
   1  -3   1    562.27    5.74  0. 1.0000     0.      0.00 
   2  -3   1     93.52    1.16  0. 1.0000     0.      0.00 
   3  -3   1      2.55    0.40  0. 1.0000     0.      0.00 
   4  -3   1   1777.50   15.07  0. 1.0000     0.      0.00 
   5  -3   1      8.25    0.84  0. 1.0000     0.      0.00 
   6  -3   1    118.04    2.00  0. 1.0000     0.      0.00 
   7  -3   1     64.86    2.00  0. 1.0000     0.      0.00 
   8  -3   1   2288.54   26.50  0. 1.0000     0.      0.00 
   9  -3   1     23.56    1.66  0. 1.0000     0.      0.00 
  10  -3   1     24.12    2.81  0. 1.0000     0.      0.00 
  11  -3   1      6.25    3.83  0. 1.0000     0.      0.00 
  12  -3   1    105.64    8.17  0. 1.0000     0.      0.00 
  13  -3   1     42.07   14.39  0. 1.0000     0.      0.00 
  14  -3   1     69.48   30.12  0. 1.0000     0.      0.00 
 -13  -2   1     12.27   10.16  0. 1.0000     0.      0.00 
 -12  -2   1     35.71   10.83  0. 1.0000     0.      0.00 
 -11  -2   1     12.97   21.94  0. 1.0000     0.      0.00 
 -10  -2   1    155.30   16.57  0. 1.0000     0.      0.00 
  -9  -2   1      2.65    4.91  0. 1.0000     0.      0.00 
  -8  -2   1     48.44    3.05  0. 1.0000     0.      0.00 
  -7  -2   1     26.78    5.78  0. 1.0000     0.      0.00 
  -6  -2   1    283.36    3.96  0. 1.0000     0.      0.00 
  -5  -2   1     44.22    1.86  0. 1.0000     0.      0.00 
  -4  -2   1    817.44    8.43  0. 1.0000     0.      0.00 
  -3  -2   1    821.28   32.06  0. 1.0000     0.      0.00 
  -2  -2   1   2987.07   26.64  0. 1.0000     0.      0.00 
  -1  -2   1    107.24    1.09  0. 1.0000     0.      0.00 
   0  -2   1    142.15    1.31  0. 1.0000     0.      0.00 
   1  -2   1      7.39    0.22  0. 1.0000     0.      0.00 
   2  -2   1     43.58    0.63  0. 1.0000     0.      0.00 
   3  -2   1   1419.44   12.81  0. 1.0000     0.      0.00 
   4  -2   1   6760.15   76.16  0. 1.0000     0.      0.00 
   5  -2   1   1617.45   17.93  0. 1.0000     0.      0.00 
   6  -2   1      9.23    0.75  0. 1.0000     0.      0.00 
   7  -2   1      8.93    1.37  0. 1.0000     0.      0.00 
   8  -2   1     84.86    2.69  0. 1.0000     0.      0.00 
   9  -2   1    159.88    3.77  0. 1.0000     0.      0.00 
  10  -2   1    112.29    6.05  0. 1.0000     0.      0.00 
  11  -2   1    523.51   28.95  0. 1.0000     0.      0.00 
  12  -2   1    166.08   51.87  0. 1.0000     0.      0.00 
  13  -2   1     24.44   12.79  0. 1.0000     0.      0.00 
  14  -2   1      1.39   11.39  0. 1.0000     0.      0.00 
 -13  -1   1     22.12   31.44  0. 1.0000     0.      0.00 
 -12  -1   1      0.00   13.80  0. 1.0000     0.      0.00 
 -11  -1   1    120.28   10.30  0. 1.0000     0.      0.00 
 -10  -1   1      9.60    3.52  0. 1.0000     0.      0.00 
  -9  -1   1     84.80    3.77  0. 1.0000     0.      0.00 
  -8  -1   1    147.82    3.05  0. 1.0000     0.      0.00 
  -7  -1   1    793.94   15.01  0. 1.0000     0.      0.00 
  -6  -1   1    835.24   14.97  0. 1.0000     0.      0.00 
  -5  -1   1    335.78    5.60  0. 1.0000     0.      0.00 
  -4  -1   1     82.52    1.38  0. 1.0000     0.      0.00 
  -3  -1   1    451.93    4.08  0. 1.0000     0.      0.00 
  -2  -1   1     95.12    0.90  0. 1.0000     0.      0.00 
  -1  -1   1    807.16    5.92  0. 1.0000     0.      0.00 
   0  -1   1    257.76    5.47  0. 1.0000     0.      0.00 
   1  -1   1   1451.50   10.97  0. 1.0000     0.      0.00 
   2  -1   1     30.31    0.54  0. 1.0000     0.      0.00 
   3  -1   1   1685.01   16.04  0. 1.0000     0.      0.00 
   4  -1   1    926.96   10.33  0. 1.0000     0.      0.00 
   5  -1   1    527.52    6.42  0. 1.0000     0.      0.00 
   6  -1   1     82.68    1.77  0. 1.0000     0.      0.00 
   7  -1   1     69.58    2.18  0. 1.0000     0.      0.00 
   8  -1   1      2.68    3.52  0. 1.0000     0.      0.00 
   9  -1   1    349.88   29.54  0. 1.0000     0.      0.00 
  10  -1   1      9.33    4.29  0. 1.0000     0.      0.00 
  11  -1   1   1511.64   20.11  0. 1.0000     0.      0.00 
  12  -1   1     12.77    5.54  0. 1.0000     0.      0.00 
  13  -1   1     92.80    5.68  0. 1.0000     0.      0.00 
  14  -1   1     11.67    5.46  0. 1.0000     0.      0.00 
 -13   0   1     11.22    7.33  0. 1.0000     0.      0.00 
 -12   0   1      1.34    5.08  0. 1.0000     0.      0.00 
 -11   0   1    147.65    4.42  0. 1.0000     0.      0.00 
 -10   0   1     66.42    3.00  0. 1.0000     0.      0.00 
  -9   0   1      8.14    2.79  0. 1.0000     0.      0.00 
  -8   0   1     25.81    4.83  0. 1.0000     0.      0.00 
  -7   0   1   1673.68   18.56  0. 1.0000     0.      0.00 
  -6   0   1     47.55    1.66  0. 1.0000     0.      0.00 
  -5   0   1    217.72    2.68  0. 1.0000     0.      0.00 
  -4   0   1      8.02    0.50  0. 1.0000     0.      0.00 
  -3   0   1    116.56    1.34  0. 1.0000     0.      0.00 
  -2   0   1      2.44    0.26  0. 1.0000     0.      0.00 
  -1   0   1   1471.99   22.17  0. 1.0000     0.      0.00 
   1   0   1   1647.20   23.04  0. 1.0000     0.      0.00 
   2   0   1     48.32    0.57  0. 1.0000     0.      0.00 
   3   0   1    195.11    1.92  0. 1.0000     0.      0.00 
   4   0   1    134.17    1.54  0. 1.0000     0.      0.00 
   5   0   1    212.58    2.53  0. 1.0000     0.      0.00 
   6   0   1    146.01    2.14  0. 1.0000     0.      0.00 
   7   0   1   3437.90   35.35  0. 1.0000     0.      0.00 
   8   0   1     39.94    2.53  0. 1.0000     0.      0.00 
   9   0   1      7.17    2.78  0. 1.0000     0.      0.00 
  10   0   1     26.60    2.78  0. 1.0000     0.      0.00 
  11   0   1    309.37    5.61  0. 1.0000     0.      0.00 
  12   0   1     40.33    5.23  0. 1.0000     0.      0.00 
  13   0   1      8.80    7.94  0. 1.0000     0.      0.00 
 -14   1   1     10.96    5.07  0. 1.0000     0.      0.00 
 -13   1   1     12.42    5.42  0. 1.0000     0.      0.00 
 -12   1   1      0.00    5.53  0. 1.0000     0.      0.00 
 -11   1   1    645.89   10.23  0. 1.0000     0.      0.00 
 -10   1   1      0.00    6.10  0. 1.0000     0.      0.00 
  -9   1   1     87.95   10.69  0. 1.0000     0.      0.00 
  -8   1   1     87.06    4.12  0. 1.0000     0.      0.00 
  -7   1   1     71.37    1.86  0. 1.0000     0.      0.00 
  -6   1   1    109.49    1.93  0. 1.0000     0.      0.00 
  -5   1   1    469.67    5.66  0. 1.0000     0.      0.00 
  -4   1   1    708.30    8.89  0. 1.0000     0.      0.00 
  -3   1   1   1534.30   14.66  0. 1.0000     0.      0.00 
  -2   1   1     11.16    0.51  0. 1.0000     0.      0.00 
  -1   1   1   1254.62    8.64  0. 1.0000     0.      0.00 
   0   1   1    124.63    4.30  0. 1.0000     0.      0.00 
   1   1   1    780.57    5.47  0. 1.0000     0.      0.00 
   2   1   1     47.32    0.57  0. 1.0000     0.      0.00 
   3   1   1    797.73    6.90  0. 1.0000     0.      0.00 
   4   1   1    505.50    5.59  0. 1.0000     0.      0.00 
   5   1   1    157.37    3.42  0. 1.0000     0.      0.00 
   6   1   1   1182.01   11.98  0. 1.0000     0.      0.00 
   7   1   1   2270.40   23.94  0. 1.0000     0.      0.00 
   8   1   1    117.42    2.50  0. 1.0000     0.      0.00 
   9   1   1    124.82    4.24  0. 1.0000     0.      0.00 
  10   1   1     17.50    3.46  0. 1.0000     0.      0.00 
  11   1   1      0.00    7.71  0. 1.0000     0.      0.00 
  12   1   1    165.27   17.29  0. 1.0000     0.      0.00 
  13   1   1    107.18   27.18  0. 1.0000     0.      0.00 
 -14   2   1      0.14   10.16  0. 1.0000     0.      0.00 
 -13   2   1     24.25   12.92  0. 1.0000     0.      0.00 
 -12   2   1      0.00   25.15  0. 1.0000     0.      0.00 
 -11   2   1    217.35   21.82  0. 1.0000     0.      0.00 
 -10   2   1     74.64    5.30  0. 1.0000     0.      0.00 
  -9   2   1     10.89    2.94  0. 1.0000     0.      0.00 
  -8   2   1    172.28    3.02  0. 1.0000     0.      0.00 
  -7   2   1     21.25    1.41  0. 1.0000     0.      0.00 
  -6   2   1     13.82    0.75  0. 1.0000     0.      0.00 
  -5   2   1   1393.01   16.05  0. 1.0000     0.      0.00 
  -4   2   1   5586.19   66.92  0. 1.0000     0.      0.00 
  -3   2   1   1031.70   10.94  0. 1.0000     0.      0.00 
  -2   2   1     56.28    0.81  0. 1.0000     0.      0.00 
  -1   2   1      8.43    0.24  0. 1.0000     0.      0.00 
   0   2   1    224.34    2.04  0. 1.0000     0.      0.00 
   1   2   1      5.50    0.27  0. 1.0000     0.      0.00 
   2   2   1   4386.06   36.05  0. 1.0000     0.      0.00 
   3   2   1    722.30    6.68  0. 1.0000     0.      0.00 
   4   2   1    925.42    8.47  0. 1.0000     0.      0.00 
   5   2   1      0.00    1.64  0. 1.0000     0.      0.00 
   6   2   1    312.10    4.87  0. 1.0000     0.      0.00 
   7   2   1      8.04    2.12  0. 1.0000     0.      0.00 
   8   2   1    170.30    4.46  0. 1.0000     0.      0.00 
   9   2   1      2.36    5.24  0. 1.0000     0.      0.00 
  10   2   1    492.80   30.60  0. 1.0000     0.      0.00 
  11   2   1      6.04   41.21  0. 1.0000     0.      0.00 
  12   2   1     85.48   15.71  0. 1.0000     0.      0.00 
  13   2   1     15.66   10.44  0. 1.0000     0.      0.00 
 -14   3   1     35.35   34.66  0. 1.0000     0.      0.00 
 -13   3   1     12.86   15.14  0. 1.0000     0.      0.00 
 -12   3   1    103.76    8.56  0. 1.0000     0.      0.00 
 -11   3   1     13.90    4.02  0. 1.0000     0.      0.00 
 -10   3   1      6.50    2.77  0. 1.0000     0.      0.00 
  -9   3   1     31.14    1.79  0. 1.0000     0.      0.00 
  -8   3   1   1427.09   19.38  0. 1.0000     0.      0.00 
  -7   3   1     77.57    2.05  0. 1.0000     0.      0.00 
  -6   3   1     49.94    1.70  0. 1.0000     0.      0.00 
  -5   3   1      7.03    0.91  0. 1.0000     0.      0.00 
  -4   3   1   1530.33   14.82  0. 1.0000     0.      0.00 
  -3   3   1     13.37    0.54  0. 1.0000     0.      0.00 
  -2   3   1    183.70    2.00  0. 1.0000     0.      0.00 
  -1   3   1    498.13    3.92  0. 1.0000     0.      0.00 
   0   3   1    326.51   10.51  0. 1.0000     0.      0.00 
   1   3   1     11.69    1.25  0. 1.0000     0.      0.00 
   2   3   1   4623.88   39.72  0. 1.0000     0.      0.00 
   3   3   1    270.44    2.88  0. 1.0000     0.      0.00 
   4   3   1     96.51    2.42  0. 1.0000     0.      0.00 
   5   3   1      4.82    1.49  0. 1.0000     0.      0.00 
   6   3   1     14.16    2.22  0. 1.0000     0.      0.00 
   7   3   1    378.38   10.69  0. 1.0000     0.      0.00 
   8   3   1    554.65   20.07  0. 1.0000     0.      0.00 
   9   3   1     74.92    6.11  0. 1.0000     0.      0.00 
  10   3   1    996.24   15.74  0. 1.0000     0.      0.00 
  11   3   1     10.04    5.58  0. 1.0000     0.      0.00 
  12   3   1    100.47    5.82  0. 1.0000     0.      0.00 
 -14   4   1     25.91    9.76  0. 1.0000     0.      0.00 
 -13   4   1     17.44    5.57  0. 1.0000     0.      0.00 
 -12   4   1     60.56    4.14  0. 1.0000     0.      0.00 
 -11   4   1     32.17    3.19  0. 1.0000     0.      0.00 
 -10   4   1      7.06    3.36  0. 1.0000     0.      0.00 
  -9   4   1     89.00    3.14  0. 1.0000     0.      0.00 
  -8   4   1   2033.85   30.18  0. 1.0000     0.      0.00 
  -7   4   1     54.63    2.67  0. 1.0000     0.      0.00 
  -6   4   1     12.41    0.95  0. 1.0000     0.      0.00 
  -5   4   1     95.96    1.82  0. 1.0000     0.      0.00 
  -4   4   1     11.11    4.71  0. 1.0000     0.      0.00 
  -3   4   1     21.22    2.29  0. 1.0000     0.      0.00 
  -2   4   1   3854.19   34.33  0. 1.0000     0.      0.00 
  -1   4   1   1637.53   13.30  0. 1.0000     0.      0.00 
   0   4   1    644.64    7.88  0. 1.0000     0.      0.00 
   1   4   1    159.82    2.01  0. 1.0000     0.      0.00 
   2   4   1     70.72    2.00  0. 1.0000     0.      0.00 
   3   4   1    819.39    8.69  0. 1.0000     0.      0.00 
   4   4   1     38.28    1.11  0. 1.0000     0.      0.00 
   5   4   1    333.87    4.82  0. 1.0000     0.      0.00 
   6   4   1    883.77   10.47  0. 1.0000     0.      0.00 
   7   4   1    230.54    5.16  0. 1.0000     0.      0.00 
   8   4   1     19.24    3.15  0. 1.0000     0.      0.00 
   9   4   1    325.17    5.23  0. 1.0000     0.      0.00 
  10   4   1     47.50    3.77  0. 1.0000     0.      0.00 
  11   4   1     11.29    5.57  0. 1.0000     0.      0.00 
  12   4   1      4.04    8.90  0. 1.0000     0.      0.00 
 -14   5   1      6.56    5.86  0. 1.0000     0.      0.00 
 -13   5   1     45.56    7.08  0. 1.0000     0.      0.00 
 -12   5   1    249.34   10.40  0. 1.0000     0.      0.00 
 -11   5   1     20.93    7.48  0. 1.0000     0.      0.00 
  -9   5   1    298.41   16.73  0. 1.0000     0.      0.00 
  -8   5   1    172.73    3.33  0. 1.0000     0.      0.00 
  -7   5   1     10.48    1.96  0. 1.0000     0.      0.00 
  -6   5   1     83.31    2.91  0. 1.0000     0.      0.00 
  -5   5   1    866.32    8.42  0. 1.0000     0.      0.00 
  -4   5   1    170.02    1.75  0. 1.0000     0.      0.00 
  -3   5   1     72.15    1.69  0. 1.0000     0.      0.00 
  -2   5   1    855.51    8.12  0. 1.0000     0.      0.00 
  -1   5   1   3281.11   29.50  0. 1.0000     0.      0.00 
   0   5   1     43.92    1.34  0. 1.0000     0.      0.00 
   1   5   1     69.67    1.22  0. 1.0000     0.      0.00 
   2   5   1     72.72    1.41  0. 1.0000     0.      0.00 
   3   5   1    822.15   10.32  0. 1.0000     0.      0.00 
   4   5   1    124.67    3.65  0. 1.0000     0.      0.00 
   5   5   1   2806.43   28.25  0. 1.0000     0.      0.00 
   6   5   1    129.33    4.43  0. 1.0000     0.      0.00 
   7   5   1      7.11    2.20  0. 1.0000     0.      0.00 
   8   5   1     51.62    3.40  0. 1.0000     0.      0.00 
   9   5   1    140.31    5.78  0. 1.0000     0.      0.00 
  10   5   1     37.94    9.36  0. 1.0000     0.      0.00 
  11   5   1    167.19   21.10  0. 1.0000     0.      0.00 
 -14   6   1      9.12   25.67  0. 1.0000     0.      0.00 
 -13   6   1    275.31   81.45  0. 1.0000     0.      0.00 
 -12   6   1      0.00   55.64  0. 1.0000     0.      0.00 
 -11   6   1     93.30    8.95  0. 1.0000     0.      0.00 
 -10   6   1      9.52    3.59  0. 1.0000     0.      0.00 
  -9   6   1     17.63    2.75  0. 1.0000     0.      0.00 
  -8   6   1      0.33    2.02  0. 1.0000     0.      0.00 
  -7   6   1    145.38    2.46  0. 1.0000     0.      0.00 
  -6   6   1      7.35    1.55  0. 1.0000     0.      0.00 
  -5   6   1   3554.15   32.44  0. 1.0000     0.      0.00 
  -4   6   1      7.09    2.26  0. 1.0000     0.      0.00 
  -3   6   1     19.47    2.69  0. 1.0000     0.      0.00 
  -2   6   1    234.80    2.75  0. 1.0000     0.      0.00 
  -1   6   1    605.16    6.00  0. 1.0000     0.      0.00 
   0   6   1     45.16    2.42  0. 1.0000     0.      0.00 
   1   6   1   1907.87   20.45  0. 1.0000     0.      0.00 
   2   6   1    243.21    3.18  0. 1.0000     0.      0.00 
   3   6   1    194.60    2.84  0. 1.0000     0.      0.00 
   4   6   1      1.01    1.41  0. 1.0000     0.      0.00 
   5   6   1    867.92    9.78  0. 1.0000     0.      0.00 
   6   6   1    335.89    5.16  0. 1.0000     0.      0.00 
   7   6   1      4.95    3.88  0. 1.0000     0.      0.00 
   8   6   1     26.24   11.95  0. 1.0000     0.      0.00 
   9   6   1    131.22   21.69  0. 1.0000     0.      0.00 
  10   6   1     75.33   33.38  0. 1.0000     0.      0.00 
  11   6   1     94.00   15.76  0. 1.0000     0.      0.00 
 -14   7   1      0.00   19.71  0. 1.0000     0.      0.00 
 -13   7   1     43.79   10.92  0. 1.0000     0.      0.00 
 -12   7   1      0.00    8.56  0. 1.0000     0.      0.00 
 -11   7   1     19.98    3.37  0. 1.0000     0.      0.00 
 -10   7   1     78.99    1.93  0. 1.0000     0.      0.00 
  -9   7   1    301.24    3.09  0. 1.0000     0.      0.00 
  -8   7   1     22.39    2.93  0. 1.0000     0.      0.00 
  -7   7   1    208.56    3.97  0. 1.0000     0.      0.00 
  -6   7   1    656.92    7.80  0. 1.0000     0.      0.00 
  -5   7   1    865.67   14.58  0. 1.0000     0.      0.00 
  -4   7   1      2.87    1.69  0. 1.0000     0.      0.00 
  -3   7   1      6.47    2.84  0. 1.0000     0.      0.00 
  -2   7   1    414.55    6.57  0. 1.0000     0.      0.00 
  -1   7   1     69.21    2.99  0. 1.0000     0.      0.00 
   0   7   1    297.91    6.58  0. 1.0000     0.      0.00 
   1   7   1   2297.93   24.52  0. 1.0000     0.      0.00 
   2   7   1    642.43    8.05  0. 1.0000     0.      0.00 
   3   7   1     17.14    2.23  0. 1.0000     0.      0.00 
   4   7   1     33.20    2.75  0. 1.0000     0.      0.00 
   5   7   1     25.78    4.42  0. 1.0000     0.      0.00 
   6   7   1    689.81   40.26  0. 1.0000     0.      0.00 
   7   7   1    138.27   50.69  0. 1.0000     0.      0.00 
   8   7   1    203.83   12.44  0. 1.0000     0.      0.00 
   9   7   1     80.89    8.77  0. 1.0000     0.      0.00 
  10   7   1     16.35    8.56  0. 1.0000     0.      0.00 
 -13   8   1     10.90    4.91  0. 1.0000     0.      0.00 
 -12   8   1     41.08    5.26  0. 1.0000     0.      0.00 
 -11   8   1     80.28    4.63  0. 1.0000     0.      0.00 
 -10   8   1    585.67    7.25  0. 1.0000     0.      0.00 
  -9   8   1    367.46    7.51  0. 1.0000     0.      0.00 
  -7   8   1     47.84   13.29  0. 1.0000     0.      0.00 
  -6   8   1    222.81    3.61  0. 1.0000     0.      0.00 
  -5   8   1      0.00    4.86  0. 1.0000     0.      0.00 
  -4   8   1    203.59    3.78  0. 1.0000     0.      0.00 
  -3   8   1    314.56    5.79  0. 1.0000     0.      0.00 
  -2   8   1   1260.09   11.97  0. 1.0000     0.      0.00 
  -1   8   1    120.29    2.66  0. 1.0000     0.      0.00 
   0   8   1     39.98    2.30  0. 1.0000     0.      0.00 
   1   8   1      0.00    2.56  0. 1.0000     0.      0.00 
   2   8   1    622.21    8.30  0. 1.0000     0.      0.00 
   3   8   1      0.00   22.88  0. 1.0000     0.      0.00 
   4   8   1    141.45   29.01  0. 1.0000     0.      0.00 
   5   8   1      1.88    6.03  0. 1.0000     0.      0.00 
   6   8   1    277.98    6.64  0. 1.0000     0.      0.00 
   7   8   1     25.12    7.56  0. 1.0000     0.      0.00 
   8   8   1    435.86    9.81  0. 1.0000     0.      0.00 
   9   8   1      5.29    5.30  0. 1.0000     0.      0.00 
 -13   9   1     26.89   14.75  0. 1.0000     0.      0.00 
 -12   9   1      1.27   21.03  0. 1.0000     0.      0.00 
 -11   9   1     26.05   54.69  0. 1.0000     0.      0.00 
 -10   9   1    569.93   16.86  0. 1.0000     0.      0.00 
  -9   9   1      2.84    5.37  0. 1.0000     0.      0.00 
  -8   9   1     23.54    3.09  0. 1.0000     0.      0.00 
  -7   9   1     34.96    3.76  0. 1.0000     0.      0.00 
  -6   9   1    105.15    2.64  0. 1.0000     0.      0.00 
  -5   9   1      3.60    4.78  0. 1.0000     0.      0.00 
  -4   9   1    938.94   11.10  0. 1.0000     0.      0.00 
  -3   9   1     40.68    2.89  0. 1.0000     0.      0.00 
  -2   9   1   1057.46   11.76  0. 1.0000     0.      0.00 
  -1   9   1      0.00    3.86  0. 1.0000     0.      0.00 
   0   9   1     37.33   16.03  0. 1.0000     0.      0.00 
   1   9   1    524.67   22.47  0. 1.0000     0.      0.00 
   2   9   1    515.57    9.70  0. 1.0000     0.      0.00 
   3   9   1      0.00    3.51  0. 1.0000     0.      0.00 
   4   9   1   1164.45   13.73  0. 1.0000     0.      0.00 
   5   9   1     46.92    4.25  0. 1.0000     0.      0.00 
   6   9   1     27.71    4.13  0. 1.0000     0.      0.00 
   7   9   1     17.34    6.22  0. 1.0000     0.      0.00 
   8   9   1     52.04    7.74  0. 1.0000     0.      0.00 
   9   9   1     52.51   35.39  0. 1.0000     0.      0.00 
 -10  10   1     12.23    4.34  0. 1.0000     0.      0.00 
  -9  10   1      0.00    3.16  0. 1.0000     0.      0.00 
  -8  10   1    203.93    3.61  0. 1.0000     0.      0.00 
  -7  10   1    320.87    4.42  0. 1.0000     0.      0.00 
  -6  10   1    397.41    6.13  0. 1.0000     0.      0.00 
  -5  10   1     30.52    3.59  0. 1.0000     0.      0.00 
  -4  10   1     21.78    4.69  0. 1.0000     0.      0.00 
  -3  10   1    742.72   43.74  0. 1.0000     0.      0.00 
  -2  10   1     55.14   18.12  0. 1.0000     0.      0.00 
  -1  10   1      0.00    4.39  0. 1.0000     0.      0.00 
   0  10   1    108.32    4.29  0. 1.0000     0.      0.00 
   1  10   1    368.22    5.62  0. 1.0000     0.      0.00 
   2  10   1     96.68    4.10  0. 1.0000     0.      0.00 
   3  10   1    142.37    3.57  0. 1.0000     0.      0.00 
   4  10   1    136.06    5.90  0. 1.0000     0.      0.00 
   5  10   1    117.28    6.82  0. 1.0000     0.      0.00 
   6  10   1     11.66    8.73  0. 1.0000     0.      0.00 
   7  10   1     24.39   20.65  0. 1.0000     0.      0.00 
   8  10   1      0.00   75.15  0. 1.0000     0.      0.00 
 -11  11   1     41.37    5.25  0. 1.0000     0.      0.00 
 -10  11   1      0.00    5.12  0. 1.0000     0.      0.00 
  -9  11   1      0.00    7.93  0. 1.0000     0.      0.00 
  -8  11   1    157.23    8.82  0. 1.0000     0.      0.00 
  -7  11   1   1021.44   33.40  0. 1.0000     0.      0.00 
  -6  11   1      6.01   34.06  0. 1.0000     0.      0.00 
  -5  11   1      0.00   22.07  0. 1.0000     0.      0.00 
  -4  11   1     66.10    6.79  0. 1.0000     0.      0.00 
  -3  11   1    290.30    5.38  0. 1.0000     0.      0.00 
  -2  11   1      0.00    4.43  0. 1.0000     0.      0.00 
  -1  11   1    592.77    7.69  0. 1.0000     0.      0.00 
   0  11   1    125.20    3.21  0. 1.0000     0.      0.00 
   1  11   1    165.92    4.08  0. 1.0000     0.      0.00 
   2  11   1      0.00    4.94  0. 1.0000     0.      0.00 
   3  11   1     11.35    6.28  0. 1.0000     0.      0.00 
   4  11   1    101.88   14.95  0. 1.0000     0.      0.00 
   5  11   1    146.03   37.35  0. 1.0000     0.      0.00 
   6  11   1      0.00   35.79  0. 1.0000     0.      0.00 
 -10  12   1     15.30   35.35  0. 1.0000     0.      0.00 
  -8  12   1     68.42   54.14  0. 1.0000     0.      0.00 
  -7  12   1    232.50   15.30  0. 1.0000     0.      0.00 
  -6  12   1      4.36    9.88  0. 1.0000     0.      0.00 
  -5  12   1    104.38    7.37  0. 1.0000     0.      0.00 
  -4  12   1     24.89    6.00  0. 1.0000     0.      0.00 
  -3  12   1    221.75    5.54  0. 1.0000     0.      0.00 
  -2  12   1     22.04    4.99  0. 1.0000     0.      0.00 
  -1  12   1    312.68    8.63  0. 1.0000     0.      0.00 
   0  12   1    209.32    7.51  0. 1.0000     0.      0.00 
   1  12   1     23.17   16.19  0. 1.0000     0.      0.00 
   2  12   1     51.73   48.18  0. 1.0000     0.      0.00 
   3  12   1      0.00   35.28  0. 1.0000     0.      0.00 
   4  12   1    143.11   15.34  0. 1.0000     0.      0.00 
   5  12   1    163.39   11.29  0. 1.0000     0.      0.00 
 -10  13   1      9.50   16.29  0. 1.0000     0.      0.00 
  -9  13   1      2.91   12.85  0. 1.0000     0.      0.00 
  -8  13   1     53.43    9.05  0. 1.0000     0.      0.00 
  -7  13   1      0.00    5.72  0. 1.0000     0.      0.00 
  -6  13   1     11.27    3.40  0. 1.0000     0.      0.00 
  -5  13   1    501.39    8.26  0. 1.0000     0.      0.00 
  -4  13   1    342.85    7.95  0. 1.0000     0.      0.00 
  -3  13   1     11.13    7.57  0. 1.0000     0.      0.00 
  -2  13   1      5.34   19.75  0. 1.0000     0.      0.00 
   0  13   1    520.53   56.25  0. 1.0000     0.      0.00 
   1  13   1     53.62   15.50  0. 1.0000     0.      0.00 
   2  13   1      7.38    9.73  0. 1.0000     0.      0.00 
   3  13   1     67.92    8.50  0. 1.0000     0.      0.00 
  -8  14   1    133.79    6.38  0. 1.0000     0.      0.00 
  -7  14   1      9.15    8.14  0. 1.0000     0.      0.00 
  -6  14   1     12.21   12.67  0. 1.0000     0.      0.00 
  -5  14   1     14.50   32.60  0. 1.0000     0.      0.00 
  -4  14   1    488.49   86.04  0. 1.0000     0.      0.00 
  -3  14   1      0.00   31.71  0. 1.0000     0.      0.00 
  -2  14   1      0.00   14.74  0. 1.0000     0.      0.00 
  -1  14   1     21.09   10.60  0. 1.0000     0.      0.00 
   0  14   1    175.63    8.10  0. 1.0000     0.      0.00 
   1  14   1     23.91    5.82  0. 1.0000     0.      0.00 
  -5  15   1    101.75   21.21  0. 1.0000     0.      0.00 
  -4  15   1     61.35   12.74  0. 1.0000     0.      0.00 
  -3  15   1      8.33    9.02  0. 1.0000     0.      0.00 
  -2  15   1    174.96   12.99  0. 1.0000     0.      0.00 
   2 -15   2     19.55    5.63  0. 1.0000     0.      0.00 
   3 -15   2     16.38    8.55  0. 1.0000     0.      0.00 
   4 -15   2    101.50   12.87  0. 1.0000     0.      0.00 
   5 -15   2      8.46   18.67  0. 1.0000     0.      0.00 
   6 -15   2      0.00   52.70  0. 1.0000     0.      0.00 
  -2 -14   2     85.67   15.91  0. 1.0000     0.      0.00 
  -1 -14   2      6.29    5.40  0. 1.0000     0.      0.00 
   0 -14   2    192.99    7.88  0. 1.0000     0.      0.00 
   1 -14   2     34.37   10.02  0. 1.0000     0.      0.00 
   2 -14   2     31.05   13.37  0. 1.0000     0.      0.00 
   3 -14   2     51.65   44.64  0. 1.0000     0.      0.00 
   5 -14   2     29.36   26.82  0. 1.0000     0.      0.00 
   6 -14   2     15.27   11.15  0. 1.0000     0.      0.00 
   7 -14   2     10.79    8.74  0. 1.0000     0.      0.00 
   8 -14   2      5.97    5.87  0. 1.0000     0.      0.00 
  -4 -13   2     26.68   16.09  0. 1.0000     0.      0.00 
  -3 -13   2     11.51    8.17  0. 1.0000     0.      0.00 
  -2 -13   2     94.92    9.73  0. 1.0000     0.      0.00 
  -1 -13   2     35.63   15.62  0. 1.0000     0.      0.00 
   0 -13   2     46.59   26.91  0. 1.0000     0.      0.00 
   2 -13   2      2.48   15.87  0. 1.0000     0.      0.00 
   3 -13   2    188.85    8.47  0. 1.0000     0.      0.00 
   4 -13   2      0.00    5.55  0. 1.0000     0.      0.00 
   5 -13   2      0.00    4.40  0. 1.0000     0.      0.00 
   6 -13   2    123.88    4.30  0. 1.0000     0.      0.00 
   7 -13   2    101.14    5.96  0. 1.0000     0.      0.00 
   8 -13   2     33.21    7.77  0. 1.0000     0.      0.00 
   9 -13   2    144.68   13.64  0. 1.0000     0.      0.00 
  10 -13   2     21.80   20.93  0. 1.0000     0.      0.00 
  -5 -12   2     44.51   10.69  0. 1.0000     0.      0.00 
  -4 -12   2     12.11   15.02  0. 1.0000     0.      0.00 
  -3 -12   2     23.23   38.35  0. 1.0000     0.      0.00 
  -1 -12   2     26.79   15.19  0. 1.0000     0.      0.00 
   0 -12   2      0.00    6.16  0. 1.0000     0.      0.00 
   1 -12   2     51.35    6.16  0. 1.0000     0.      0.00 
   2 -12   2    107.34    4.69  0. 1.0000     0.      0.00 
   3 -12   2    109.84    4.16  0. 1.0000     0.      0.00 
   4 -12   2     20.14    4.91  0. 1.0000     0.      0.00 
   5 -12   2    117.54    6.70  0. 1.0000     0.      0.00 
   6 -12   2     30.32    9.26  0. 1.0000     0.      0.00 
   7 -12   2      9.15   14.48  0. 1.0000     0.      0.00 
   8 -12   2      2.18   54.78  0. 1.0000     0.      0.00 
  10 -12   2    316.46   45.29  0. 1.0000     0.      0.00 
  11 -12   2      5.45   21.11  0. 1.0000     0.      0.00 
  -6 -11   2      9.68   36.03  0. 1.0000     0.      0.00 
  -5 -11   2     16.24   29.48  0. 1.0000     0.      0.00 
  -4 -11   2     32.71   14.44  0. 1.0000     0.      0.00 
  -3 -11   2     17.05    6.38  0. 1.0000     0.      0.00 
  -2 -11   2    221.17    5.62  0. 1.0000     0.      0.00 
  -1 -11   2      0.00    3.38  0. 1.0000     0.      0.00 
   0 -11   2      2.88    2.11  0. 1.0000     0.      0.00 
   1 -11   2     40.91    3.56  0. 1.0000     0.      0.00 
   2 -11   2     14.84    3.53  0. 1.0000     0.      0.00 
   3 -11   2    408.33    6.73  0. 1.0000     0.      0.00 
   4 -11   2      0.00    5.79  0. 1.0000     0.      0.00 
   5 -11   2    136.33   20.13  0. 1.0000     0.      0.00 
   7 -11   2      0.00   13.60  0. 1.0000     0.      0.00 
   8 -11   2      0.00    7.38  0. 1.0000     0.      0.00 
   9 -11   2    215.63   11.09  0. 1.0000     0.      0.00 
  10 -11   2      1.01    4.91  0. 1.0000     0.      0.00 
  11 -11   2     43.38    4.52  0. 1.0000     0.      0.00 
  12 -11   2     28.61   12.43  0. 1.0000     0.      0.00 
  -8 -10   2     87.86   43.00  0. 1.0000     0.      0.00 
  -7 -10   2     10.17   20.40  0. 1.0000     0.      0.00 
  -6 -10   2     30.76    8.89  0. 1.0000     0.      0.00 
  -5 -10   2      8.86    6.19  0. 1.0000     0.      0.00 
  -4 -10   2     37.08    4.96  0. 1.0000     0.      0.00 
  -3 -10   2     28.13    2.70  0. 1.0000     0.      0.00 
  -2 -10   2     35.74    3.20  0. 1.0000     0.      0.00 
  -1 -10   2    158.57    4.04  0. 1.0000     0.      0.00 
   0 -10   2      9.54    3.31  0. 1.0000     0.      0.00 
   1 -10   2     57.44    4.05  0. 1.0000     0.      0.00 
   2 -10   2      0.00   18.92  0. 1.0000     0.      0.00 
   4 -10   2     89.92    4.86  0. 1.0000     0.      0.00 
   5 -10   2    140.19    4.24  0. 1.0000     0.      0.00 
   6 -10   2     14.94    3.74  0. 1.0000     0.      0.00 
   7 -10   2     10.22    5.70  0. 1.0000     0.      0.00 
   8 -10   2      0.00    2.19  0. 1.0000     0.      0.00 
   9 -10   2    205.47    4.00  0. 1.0000     0.      0.00 
  10 -10   2      4.55    5.33  0. 1.0000     0.      0.00 
  11 -10   2     10.93   15.80  0. 1.0000     0.      0.00 
  12 -10   2     88.78   17.41  0. 1.0000     0.      0.00 
  -9  -9   2      5.21   19.99  0. 1.0000     0.      0.00 
  -8  -9   2     15.83    8.10  0. 1.0000     0.      0.00 
  -7  -9   2      4.96    6.34  0. 1.0000     0.      0.00 
  -6  -9   2     15.85    3.97  0. 1.0000     0.      0.00 
  -5  -9   2     15.01    4.05  0. 1.0000     0.      0.00 
  -4  -9   2    274.16    5.86  0. 1.0000     0.      0.00 
  -3  -9   2     58.95    3.51  0. 1.0000     0.      0.00 
  -2  -9   2    994.37   13.76  0. 1.0000     0.      0.00 
  -1  -9   2      0.00    8.70  0. 1.0000     0.      0.00 
   0  -9   2    263.46   13.12  0. 1.0000     0.      0.00 
   1  -9   2    164.74    4.91  0. 1.0000     0.      0.00 
   2  -9   2    154.60    3.68  0. 1.0000     0.      0.00 
   3  -9   2      0.00   14.50  0. 1.0000     0.      0.00 
   4  -9   2      8.51    2.24  0. 1.0000     0.      0.00 
   5  -9   2    123.52    2.48  0. 1.0000     0.      0.00 
   6  -9   2    198.96    4.13  0. 1.0000     0.      0.00 
   7  -9   2      4.53    2.85  0. 1.0000     0.      0.00 
   8  -9   2    294.72    5.17  0. 1.0000     0.      0.00 
   9  -9   2    131.17    6.58  0. 1.0000     0.      0.00 
  10  -9   2     39.68   12.69  0. 1.0000     0.      0.00 
  12  -9   2     23.18   18.26  0. 1.0000     0.      0.00 
  13  -9   2     32.86   14.94  0. 1.0000     0.      0.00 
  -9  -8   2     13.57    4.82  0. 1.0000     0.      0.00 
  -8  -8   2    233.80    7.98  0. 1.0000     0.      0.00 
  -7  -8   2     18.00    6.60  0. 1.0000     0.      0.00 
  -6  -8   2    388.79    8.11  0. 1.0000     0.      0.00 
  -5  -8   2      8.95    5.21  0. 1.0000     0.      0.00 
  -4  -8   2    187.30   18.42  0. 1.0000     0.      0.00 
  -3  -8   2    126.09   26.39  0. 1.0000     0.      0.00 
  -2  -8   2    115.06    3.65  0. 1.0000     0.      0.00 
  -1  -8   2      2.43    6.50  0. 1.0000     0.      0.00 
   0  -8   2     85.95    2.80  0. 1.0000     0.      0.00 
   1  -8   2    375.00    4.59  0. 1.0000     0.      0.00 
   2  -8   2     13.19    1.95  0. 1.0000     0.      0.00 
   3  -8   2      0.00    7.57  0. 1.0000     0.      0.00 
   4  -8   2      1.47    2.04  0. 1.0000     0.      0.00 
   5  -8   2     26.34    3.07  0. 1.0000     0.      0.00 
   6  -8   2     52.56    2.84  0. 1.0000     0.      0.00 
   7  -8   2    283.88   14.30  0. 1.0000     0.      0.00 
   8  -8   2      1.73   28.52  0. 1.0000     0.      0.00 
   9  -8   2    152.15    5.65  0. 1.0000     0.      0.00 
  10  -8   2      0.00    4.31  0. 1.0000     0.      0.00 
  11  -8   2      0.00    5.10  0. 1.0000     0.      0.00 
  12  -8   2    139.19    5.80  0. 1.0000     0.      0.00 
  13  -8   2     11.03    4.52  0. 1.0000     0.      0.00 
 -10  -7   2     47.34    7.90  0. 1.0000     0.      0.00 
  -9  -7   2     12.03    7.87  0. 1.0000     0.      0.00 
  -8  -7   2    254.81   14.70  0. 1.0000     0.      0.00 
  -7  -7   2      0.00   39.58  0. 1.0000     0.      0.00 
  -6  -7   2    407.83   21.98  0. 1.0000     0.      0.00 
  -5  -7   2    136.61    7.19  0. 1.0000     0.      0.00 
  -4  -7   2     19.27    2.90  0. 1.0000     0.      0.00 
  -3  -7   2    546.66    6.63  0. 1.0000     0.      0.00 
  -2  -7   2     34.95    5.54  0. 1.0000     0.      0.00 
  -1  -7   2    229.52    8.15  0. 1.0000     0.      0.00 
   0  -7   2     32.30    6.13  0. 1.0000     0.      0.00 
   1  -7   2   1118.75   12.69  0. 1.0000     0.      0.00 
   2  -7   2    141.33    2.32  0. 1.0000     0.      0.00 
   3  -7   2    875.59    8.86  0. 1.0000     0.      0.00 
   4  -7   2      1.65    1.54  0. 1.0000     0.      0.00 
   5  -7   2     25.05    3.48  0. 1.0000     0.      0.00 
   6  -7   2     17.32    3.33  0. 1.0000     0.      0.00 
   7  -7   2      7.02    2.67  0. 1.0000     0.      0.00 
   8  -7   2    370.68    5.54  0. 1.0000     0.      0.00 
   9  -7   2      0.00    2.04  0. 1.0000     0.      0.00 
  10  -7   2     14.18    2.03  0. 1.0000     0.      0.00 
  11  -7   2      9.30    3.80  0. 1.0000     0.      0.00 
  12  -7   2    135.43    8.11  0. 1.0000     0.      0.00 
  13  -7   2      9.06   11.70  0. 1.0000     0.      0.00 
  14  -7   2     29.64   22.03  0. 1.0000     0.      0.00 
 -11  -6   2     17.16   13.07  0. 1.0000     0.      0.00 
 -10  -6   2     67.49   34.49  0. 1.0000     0.      0.00 
  -9  -6   2     54.84   34.17  0. 1.0000     0.      0.00 
  -8  -6   2     17.57   10.76  0. 1.0000     0.      0.00 
  -7  -6   2      7.43    3.69  0. 1.0000     0.      0.00 
  -6  -6   2     13.61    3.45  0. 1.0000     0.      0.00 
  -5  -6   2    131.37    3.05  0. 1.0000     0.      0.00 
  -4  -6   2     58.72    1.62  0. 1.0000     0.      0.00 
  -3  -6   2    194.24    2.69  0. 1.0000     0.      0.00 
  -2  -6   2     60.28    8.99  0. 1.0000     0.      0.00 
  -1  -6   2    605.21    6.17  0. 1.0000     0.      0.00 
   0  -6   2     25.60    1.58  0. 1.0000     0.      0.00 
   1  -6   2   1491.57   14.82  0. 1.0000     0.      0.00 
   2  -6   2     20.03    0.87  0. 1.0000     0.      0.00 
   3  -6   2   1332.37   12.13  0. 1.0000     0.      0.00 
   4  -6   2    469.35    4.86  0. 1.0000     0.      0.00 
   5  -6   2     21.74   10.23  0. 1.0000     0.      0.00 
   6  -6   2      7.89    1.40  0. 1.0000     0.      0.00 
   7  -6   2    334.42    3.46  0. 1.0000     0.      0.00 
   8  -6   2     52.21    1.85  0. 1.0000     0.      0.00 
   9  -6   2      5.20    2.51  0. 1.0000     0.      0.00 
  10  -6   2     54.61    4.00  0. 1.0000     0.      0.00 
  11  -6   2      0.00    9.24  0. 1.0000     0.      0.00 
  14  -6   2      1.18   43.18  0. 1.0000     0.      0.00 
 -11  -5   2     58.20   20.18  0. 1.0000     0.      0.00 
 -10  -5   2     75.17    8.76  0. 1.0000     0.      0.00 
  -9  -5   2     10.32    5.49  0. 1.0000     0.      0.00 
  -8  -5   2    106.39    4.13  0. 1.0000     0.      0.00 
  -7  -5   2     16.72    1.91  0. 1.0000     0.      0.00 
  -6  -5   2    109.59    7.59  0. 1.0000     0.      0.00 
  -5  -5   2    684.30    9.23  0. 1.0000     0.      0.00 
  -4  -5   2     81.46    5.26  0. 1.0000     0.      0.00 
  -3  -5   2   2627.21   23.99  0. 1.0000     0.      0.00 
  -2  -5   2      4.64    0.75  0. 1.0000     0.      0.00 
  -1  -5   2   1568.89   13.81  0. 1.0000     0.      0.00 
   0  -5   2    954.93    8.76  0. 1.0000     0.      0.00 
   1  -5   2     29.70    5.75  0. 1.0000     0.      0.00 
   2  -5   2     42.24    3.01  0. 1.0000     0.      0.00 
   3  -5   2    177.95    2.18  0. 1.0000     0.      0.00 
   4  -5   2      4.67    0.94  0. 1.0000     0.      0.00 
   5  -5   2     10.31    2.79  0. 1.0000     0.      0.00 
   6  -5   2    314.17    3.90  0. 1.0000     0.      0.00 
   7  -5   2      4.27    1.98  0. 1.0000     0.      0.00 
   8  -5   2      5.23    2.47  0. 1.0000     0.      0.00 
   9  -5   2      9.93    9.90  0. 1.0000     0.      0.00 
  10  -5   2    266.06   36.18  0. 1.0000     0.      0.00 
  11  -5   2     97.30    7.82  0. 1.0000     0.      0.00 
  12  -5   2     10.17    7.24  0. 1.0000     0.      0.00 
  13  -5   2     18.78    6.86  0. 1.0000     0.      0.00 
  14  -5   2      9.82    6.22  0. 1.0000     0.      0.00 
 -12  -4   2      6.21    8.77  0. 1.0000     0.      0.00 
 -11  -4   2     13.11    5.41  0. 1.0000     0.      0.00 
 -10  -4   2      0.00    4.36  0. 1.0000     0.      0.00 
  -9  -4   2    194.65    4.62  0. 1.0000     0.      0.00 
  -8  -4   2     22.55    3.17  0. 1.0000     0.      0.00 
  -7  -4   2    360.18    5.54  0. 1.0000     0.      0.00 
  -6  -4   2     26.21    5.09  0. 1.0000     0.      0.00 
  -5  -4   2    340.83    6.28  0. 1.0000     0.      0.00 
  -4  -4   2     39.24    1.11  0. 1.0000     0.      0.00 
  -3  -4   2    696.13    7.97  0. 1.0000     0.      0.00 
  -2  -4   2    265.74    3.10  0. 1.0000     0.      0.00 
  -1  -4   2     21.07    1.32  0. 1.0000     0.      0.00 
   0  -4   2    554.29    7.11  0. 1.0000     0.      0.00 
   1  -4   2     25.08    4.36  0. 1.0000     0.      0.00 
   2  -4   2    188.46   11.46  0. 1.0000     0.      0.00 
   3  -4   2    615.17    5.94  0. 1.0000     0.      0.00 
   4  -4   2   1364.46   12.06  0. 1.0000     0.      0.00 
   5  -4   2     10.32    0.96  0. 1.0000     0.      0.00 
   6  -4   2   1989.85   17.50  0. 1.0000     0.      0.00 
   7  -4   2    316.10    5.39  0. 1.0000     0.      0.00 
   8  -4   2     22.52    2.48  0. 1.0000     0.      0.00 
   9  -4   2    171.06    3.29  0. 1.0000     0.      0.00 
  10  -4   2     32.12    3.42  0. 1.0000     0.      0.00 
  11  -4   2    147.31    4.09  0. 1.0000     0.      0.00 
  12  -4   2     15.15    3.34  0. 1.0000     0.      0.00 
  13  -4   2      5.33    5.84  0. 1.0000     0.      0.00 
  14  -4   2      6.68    9.13  0. 1.0000     0.      0.00 
 -12  -3   2     30.27    5.36  0. 1.0000     0.      0.00 
 -11  -3   2     16.68    6.10  0. 1.0000     0.      0.00 
 -10  -3   2    207.95    7.06  0. 1.0000     0.      0.00 
  -9  -3   2     93.94    9.71  0. 1.0000     0.      0.00 
  -8  -3   2    498.72   19.38  0. 1.0000     0.      0.00 
  -7  -3   2    186.76    9.27  0. 1.0000     0.      0.00 
  -6  -3   2      3.72    2.38  0. 1.0000     0.      0.00 
  -5  -3   2     64.67    1.64  0. 1.0000     0.      0.00 
  -4  -3   2    365.95    4.13  0. 1.0000     0.      0.00 
  -3  -3   2      6.17    1.45  0. 1.0000     0.      0.00 
  -2  -3   2    516.37   15.66  0. 1.0000     0.      0.00 
  -1  -3   2    296.76    2.88  0. 1.0000     0.      0.00 
   0  -3   2   3129.25   26.61  0. 1.0000     0.      0.00 
   1  -3   2     17.31    0.50  0. 1.0000     0.      0.00 
   2  -3   2   2001.99   15.93  0. 1.0000     0.      0.00 
   3  -3   2    286.40    2.48  0. 1.0000     0.      0.00 
   4  -3   2    863.60    7.31  0. 1.0000     0.      0.00 
   5  -3   2    270.74    3.20  0. 1.0000     0.      0.00 
   6  -3   2    123.93    2.95  0. 1.0000     0.      0.00 
   7  -3   2    411.69    5.05  0. 1.0000     0.      0.00 
   8  -3   2     70.70    2.11  0. 1.0000     0.      0.00 
   9  -3   2     33.02    1.76  0. 1.0000     0.      0.00 
  10  -3   2    121.74    4.06  0. 1.0000     0.      0.00 
  11  -3   2     12.08    3.88  0. 1.0000     0.      0.00 
  12  -3   2      8.03    8.43  0. 1.0000     0.      0.00 
  13  -3   2    102.92   12.77  0. 1.0000     0.      0.00 
  14  -3   2     32.19   29.44  0. 1.0000     0.      0.00 
 -13  -2   2      2.80    9.82  0. 1.0000     0.      0.00 
 -12  -2   2     19.65   10.94  0. 1.0000     0.      0.00 
 -11  -2   2     24.41   24.58  0. 1.0000     0.      0.00 
 -10  -2   2     56.94   16.61  0. 1.0000     0.      0.00 
  -9  -2   2     12.68    5.12  0. 1.0000     0.      0.00 
  -8  -2   2    279.37    4.95  0. 1.0000     0.      0.00 
  -7  -2   2     27.31    2.16  0. 1.0000     0.      0.00 
  -6  -2   2    229.70    4.27  0. 1.0000     0.      0.00 
  -5  -2   2    417.06    4.40  0. 1.0000     0.      0.00 
  -4  -2   2     12.77    2.81  0. 1.0000     0.      0.00 
  -3  -2   2     27.83    2.42  0. 1.0000     0.      0.00 
  -2  -2   2    151.08    2.16  0. 1.0000     0.      0.00 
  -1  -2   2    186.38    1.73  0. 1.0000     0.      0.00 
   0  -2   2   2725.28   20.80  0. 1.0000     0.      0.00 
   1  -2   2    626.47    4.85  0. 1.0000     0.      0.00 
   2  -2   2   3100.20   24.83  0. 1.0000     0.      0.00 
   3  -2   2    618.79    5.39  0. 1.0000     0.      0.00 
   4  -2   2    377.82    4.23  0. 1.0000     0.      0.00 
   5  -2   2     17.02    1.02  0. 1.0000     0.      0.00 
   6  -2   2    786.28    8.55  0. 1.0000     0.      0.00 
   7  -2   2     99.11    2.37  0. 1.0000     0.      0.00 
   8  -2   2     47.11    2.12  0. 1.0000     0.      0.00 
   9  -2   2    449.48    7.56  0. 1.0000     0.      0.00 
  10  -2   2    130.18    5.54  0. 1.0000     0.      0.00 
  11  -2   2      0.00   16.22  0. 1.0000     0.      0.00 
  13  -2   2     16.85   12.78  0. 1.0000     0.      0.00 
  14  -2   2     47.51   10.60  0. 1.0000     0.      0.00 
 -13  -1   2      0.00   37.71  0. 1.0000     0.      0.00 
 -12  -1   2    173.39   16.68  0. 1.0000     0.      0.00 
 -11  -1   2    346.12   11.81  0. 1.0000     0.      0.00 
 -10  -1   2      4.50    3.70  0. 1.0000     0.      0.00 
  -9  -1   2    394.91    5.91  0. 1.0000     0.      0.00 
  -8  -1   2     29.14    1.99  0. 1.0000     0.      0.00 
  -7  -1   2    197.28    9.36  0. 1.0000     0.      0.00 
  -6  -1   2     88.28    4.77  0. 1.0000     0.      0.00 
  -5  -1   2    506.53    5.81  0. 1.0000     0.      0.00 
  -4  -1   2   1037.36    9.92  0. 1.0000     0.      0.00 
  -3  -1   2    746.91    6.54  0. 1.0000     0.      0.00 
  -2  -1   2    519.60    4.17  0. 1.0000     0.      0.00 
  -1  -1   2     14.95    0.27  0. 1.0000     0.      0.00 
   0  -1   2     63.08    0.65  0. 1.0000     0.      0.00 
   1  -1   2    331.30    2.51  0. 1.0000     0.      0.00 
   2  -1   2    478.76    4.76  0. 1.0000     0.      0.00 
   3  -1   2     77.01    1.03  0. 1.0000     0.      0.00 
   4  -1   2    114.87    1.42  0. 1.0000     0.      0.00 
   5  -1   2    173.49    2.08  0. 1.0000     0.      0.00 
   6  -1   2    372.84    5.34  0. 1.0000     0.      0.00 
   7  -1   2    146.96    3.22  0. 1.0000     0.      0.00 
   8  -1   2     63.95    3.83  0. 1.0000     0.      0.00 
   9  -1   2    533.03   26.95  0. 1.0000     0.      0.00 
  10  -1   2    406.44    7.47  0. 1.0000     0.      0.00 
  11  -1   2     43.64    4.68  0. 1.0000     0.      0.00 
  12  -1   2     34.63    5.58  0. 1.0000     0.      0.00 
  13  -1   2     10.86    4.98  0. 1.0000     0.      0.00 
  14  -1   2     16.07    5.55  0. 1.0000     0.      0.00 
 -13   0   2      4.34    6.88  0. 1.0000     0.      0.00 
 -12   0   2     10.20    5.06  0. 1.0000     0.      0.00 
 -11   0   2      0.00    3.40  0. 1.0000     0.      0.00 
 -10   0   2      1.13    2.85  0. 1.0000     0.      0.00 
  -9   0   2     37.56    2.79  0. 1.0000     0.      0.00 
  -8   0   2     16.69    2.56  0. 1.0000     0.      0.00 
  -7   0   2    331.59   11.34  0. 1.0000     0.      0.00 
  -6   0   2     13.74    1.17  0. 1.0000     0.      0.00 
  -5   0   2   2256.77   21.62  0. 1.0000     0.      0.00 
  -4   0   2    217.14    2.52  0. 1.0000     0.      0.00 
  -3   0   2   2006.72   19.03  0. 1.0000     0.      0.00 
  -2   0   2    374.71    3.87  0. 1.0000     0.      0.00 
  -1   0   2     12.01    0.31  0. 1.0000     0.      0.00 
   1   0   2      8.26    0.30  0. 1.0000     0.      0.00 
   2   0   2    305.80    3.06  0. 1.0000     0.      0.00 
   3   0   2   1541.85   14.30  0. 1.0000     0.      0.00 
   4   0   2    314.59    3.05  0. 1.0000     0.      0.00 
   5   0   2   1428.35   13.76  0. 1.0000     0.      0.00 
   6   0   2    388.69    4.30  0. 1.0000     0.      0.00 
   7   0   2    573.22    8.07  0. 1.0000     0.      0.00 
   8   0   2    315.94    4.64  0. 1.0000     0.      0.00 
   9   0   2     66.37    2.85  0. 1.0000     0.      0.00 
  10   0   2     30.76    2.95  0. 1.0000     0.      0.00 
  11   0   2      0.00    3.22  0. 1.0000     0.      0.00 
  12   0   2     47.66    5.64  0. 1.0000     0.      0.00 
  13   0   2     35.52    8.39  0. 1.0000     0.      0.00 
 -14   1   2     12.44    5.22  0. 1.0000     0.      0.00 
 -13   1   2     27.52    5.62  0. 1.0000     0.      0.00 
 -12   1   2      2.02    5.28  0. 1.0000     0.      0.00 
 -11   1   2    293.17   10.78  0. 1.0000     0.      0.00 
 -10   1   2     17.50    4.31  0. 1.0000     0.      0.00 
  -9   1   2   1293.20   49.66  0. 1.0000     0.      0.00 
  -8   1   2     39.40    5.06  0. 1.0000     0.      0.00 
  -7   1   2    256.17    4.14  0. 1.0000     0.      0.00 
  -6   1   2    565.33    6.27  0. 1.0000     0.      0.00 
  -5   1   2     18.18    1.23  0. 1.0000     0.      0.00 
  -4   1   2      2.87    0.86  0. 1.0000     0.      0.00 
  -3   1   2    117.57    1.24  0. 1.0000     0.      0.00 
  -2   1   2    126.12    2.49  0. 1.0000     0.      0.00 
  -1   1   2    400.00    2.76  0. 1.0000     0.      0.00 
   0   1   2    109.28    1.01  0. 1.0000     0.      0.00 
   1   1   2     21.70    0.33  0. 1.0000     0.      0.00 
   2   1   2    356.53    2.88  0. 1.0000     0.      0.00 
   3   1   2    719.01    6.02  0. 1.0000     0.      0.00 
   4   1   2   1061.66   11.50  0. 1.0000     0.      0.00 
   5   1   2      0.00    3.42  0. 1.0000     0.      0.00 
   6   1   2     28.48    1.46  0. 1.0000     0.      0.00 
   7   1   2    556.62   10.11  0. 1.0000     0.      0.00 
   8   1   2      4.15    1.79  0. 1.0000     0.      0.00 
   9   1   2    160.82    3.73  0. 1.0000     0.      0.00 
  10   1   2      5.78    3.54  0. 1.0000     0.      0.00 
  11   1   2      5.66    8.52  0. 1.0000     0.      0.00 
  12   1   2    125.75   15.83  0. 1.0000     0.      0.00 
  13   1   2    120.61   24.77  0. 1.0000     0.      0.00 
 -14   2   2     24.36   10.33  0. 1.0000     0.      0.00 
 -13   2   2     13.45   12.50  0. 1.0000     0.      0.00 
 -12   2   2      0.00   30.56  0. 1.0000     0.      0.00 
 -11   2   2     56.18   14.70  0. 1.0000     0.      0.00 
 -10   2   2      0.00    5.09  0. 1.0000     0.      0.00 
  -9   2   2    533.06    8.58  0. 1.0000     0.      0.00 
  -8   2   2     93.61    2.50  0. 1.0000     0.      0.00 
  -7   2   2    184.18    2.89  0. 1.0000     0.      0.00 
  -6   2   2    825.81    8.40  0. 1.0000     0.      0.00 
  -5   2   2     41.84    1.07  0. 1.0000     0.      0.00 
  -4   2   2    171.66    2.88  0. 1.0000     0.      0.00 
  -3   2   2    583.93    5.71  0. 1.0000     0.      0.00 
  -2   2   2   3349.41   27.15  0. 1.0000     0.      0.00 
  -1   2   2    662.21    5.08  0. 1.0000     0.      0.00 
   0   2   2   2883.93   22.13  0. 1.0000     0.      0.00 
   1   2   2     59.65    0.71  0. 1.0000     0.      0.00 
   2   2   2     36.71    0.89  0. 1.0000     0.      0.00 
   3   2   2    658.75    7.76  0. 1.0000     0.      0.00 
   4   2   2     46.31    1.09  0. 1.0000     0.      0.00 
   5   2   2    444.13    5.69  0. 1.0000     0.      0.00 
   6   2   2     77.28    2.01  0. 1.0000     0.      0.00 
   7   2   2     44.14    2.69  0. 1.0000     0.      0.00 
   8   2   2    125.22    3.97  0. 1.0000     0.      0.00 
   9   2   2    131.51    5.87  0. 1.0000     0.      0.00 
  10   2   2     12.41   18.95  0. 1.0000     0.      0.00 
  11   2   2    161.50   26.78  0. 1.0000     0.      0.00 
  12   2   2      1.47   14.18  0. 1.0000     0.      0.00 
  13   2   2     32.12   10.15  0. 1.0000     0.      0.00 
 -14   3   2     10.81   28.43  0. 1.0000     0.      0.00 
 -13   3   2     21.02   14.90  0. 1.0000     0.      0.00 
 -12   3   2    128.15    8.64  0. 1.0000     0.      0.00 
 -11   3   2     16.06    3.99  0. 1.0000     0.      0.00 
 -10   3   2    219.38    4.53  0. 1.0000     0.      0.00 
  -9   3   2     17.02    1.69  0. 1.0000     0.      0.00 
  -8   3   2    111.62    2.23  0. 1.0000     0.      0.00 
  -7   3   2    118.06    3.12  0. 1.0000     0.      0.00 
  -6   3   2    460.31    4.91  0. 1.0000     0.      0.00 
  -5   3   2    145.91    2.29  0. 1.0000     0.      0.00 
  -4   3   2    813.96    7.44  0. 1.0000     0.      0.00 
  -3   3   2    288.51    2.53  0. 1.0000     0.      0.00 
  -2   3   2   1172.60    9.17  0. 1.0000     0.      0.00 
  -1   3   2     51.81    0.75  0. 1.0000     0.      0.00 
   0   3   2   1976.37   18.02  0. 1.0000     0.      0.00 
   1   3   2    652.23   10.44  0. 1.0000     0.      0.00 
   2   3   2    294.09    5.57  0. 1.0000     0.      0.00 
   3   3   2    600.92    6.87  0. 1.0000     0.      0.00 
   4   3   2    185.17    2.33  0. 1.0000     0.      0.00 
   5   3   2     30.22    3.68  0. 1.0000     0.      0.00 
   6   3   2     32.60    2.23  0. 1.0000     0.      0.00 
   7   3   2    439.60   24.67  0. 1.0000     0.      0.00 
   8   3   2     26.93   14.22  0. 1.0000     0.      0.00 
   9   3   2    201.54    7.12  0. 1.0000     0.      0.00 
  10   3   2    204.29    6.73  0. 1.0000     0.      0.00 
  11   3   2     19.64    5.80  0. 1.0000     0.      0.00 
  12   3   2     27.99    5.54  0. 1.0000     0.      0.00 
 -14   4   2     14.60    9.15  0. 1.0000     0.      0.00 
 -13   4   2     14.42    5.93  0. 1.0000     0.      0.00 
 -12   4   2      8.76    3.63  0. 1.0000     0.      0.00 
 -11   4   2    116.78    3.81  0. 1.0000     0.      0.00 
 -10   4   2    104.22    3.63  0. 1.0000     0.      0.00 
  -9   4   2      0.00    2.62  0. 1.0000     0.      0.00 
  -8   4   2     60.63    2.68  0. 1.0000     0.      0.00 
  -7   4   2     42.99    2.97  0. 1.0000     0.      0.00 
  -6   4   2   2285.22   21.67  0. 1.0000     0.      0.00 
  -5   4   2      4.42    1.09  0. 1.0000     0.      0.00 
  -4   4   2   1344.03   17.80  0. 1.0000     0.      0.00 
  -3   4   2    630.95   12.74  0. 1.0000     0.      0.00 
  -2   4   2    185.33    3.75  0. 1.0000     0.      0.00 
  -1   4   2    151.84    1.62  0. 1.0000     0.      0.00 
   0   4   2    763.82    7.88  0. 1.0000     0.      0.00 
   1   4   2     38.33    4.75  0. 1.0000     0.      0.00 
   2   4   2    453.43    5.14  0. 1.0000     0.      0.00 
   3   4   2    760.42    9.80  0. 1.0000     0.      0.00 
   4   4   2     15.95    1.07  0. 1.0000     0.      0.00 
   5   4   2     19.54    1.89  0. 1.0000     0.      0.00 
   6   4   2    438.65    6.56  0. 1.0000     0.      0.00 
   7   4   2    409.40    5.73  0. 1.0000     0.      0.00 
   8   4   2    149.81    4.61  0. 1.0000     0.      0.00 
   9   4   2      5.49    3.23  0. 1.0000     0.      0.00 
  10   4   2     80.92    4.16  0. 1.0000     0.      0.00 
  11   4   2      4.74    5.45  0. 1.0000     0.      0.00 
  12   4   2     18.20    8.89  0. 1.0000     0.      0.00 
 -14   5   2     15.82    6.01  0. 1.0000     0.      0.00 
 -13   5   2      8.90    6.60  0. 1.0000     0.      0.00 
 -12   5   2     21.10    7.74  0. 1.0000     0.      0.00 
 -11   5   2      0.00    6.99  0. 1.0000     0.      0.00 
 -10   5   2    246.02   41.38  0. 1.0000     0.      0.00 
  -9   5   2      1.23   10.84  0. 1.0000     0.      0.00 
  -8   5   2      7.13    3.27  0. 1.0000     0.      0.00 
  -7   5   2     17.94    2.18  0. 1.0000     0.      0.00 
  -6   5   2    165.79    5.19  0. 1.0000     0.      0.00 
  -5   5   2     31.69    1.38  0. 1.0000     0.      0.00 
  -4   5   2      0.00    4.83  0. 1.0000     0.      0.00 
  -3   5   2     80.48    1.98  0. 1.0000     0.      0.00 
  -2   5   2    298.00    4.67  0. 1.0000     0.      0.00 
  -1   5   2     58.85    1.50  0. 1.0000     0.      0.00 
   0   5   2    754.28    7.85  0. 1.0000     0.      0.00 
   1   5   2    971.66    8.39  0. 1.0000     0.      0.00 
   2   5   2     48.08    1.15  0. 1.0000     0.      0.00 
   3   5   2   1360.17   13.66  0. 1.0000     0.      0.00 
   4   5   2    250.59    7.29  0. 1.0000     0.      0.00 
   5   5   2    135.81    2.71  0. 1.0000     0.      0.00 
   6   5   2    465.91    5.67  0. 1.0000     0.      0.00 
   7   5   2      0.00    2.11  0. 1.0000     0.      0.00 
   8   5   2     21.59    3.98  0. 1.0000     0.      0.00 
   9   5   2      9.35    5.28  0. 1.0000     0.      0.00 
  10   5   2     66.39    8.86  0. 1.0000     0.      0.00 
  11   5   2      3.77   19.19  0. 1.0000     0.      0.00 
 -14   6   2     28.44   25.52  0. 1.0000     0.      0.00 
 -13   6   2      0.00   71.84  0. 1.0000     0.      0.00 
 -12   6   2      3.75   45.12  0. 1.0000     0.      0.00 
 -11   6   2    161.50    8.75  0. 1.0000     0.      0.00 
 -10   6   2     13.87    6.64  0. 1.0000     0.      0.00 
  -9   6   2      4.08    2.96  0. 1.0000     0.      0.00 
  -8   6   2     46.48    5.28  0. 1.0000     0.      0.00 
  -7   6   2    478.50    4.59  0. 1.0000     0.      0.00 
  -6   6   2      5.69    1.50  0. 1.0000     0.      0.00 
  -5   6   2      0.00    1.74  0. 1.0000     0.      0.00 
  -4   6   2    350.59    5.49  0. 1.0000     0.      0.00 
  -3   6   2   1187.99   11.48  0. 1.0000     0.      0.00 
  -2   6   2    118.20    1.72  0. 1.0000     0.      0.00 
  -1   6   2    977.10    9.48  0. 1.0000     0.      0.00 
   0   6   2     85.46    3.19  0. 1.0000     0.      0.00 
   1   6   2    343.75    4.11  0. 1.0000     0.      0.00 
   2   6   2    346.21    5.06  0. 1.0000     0.      0.00 
   3   6   2     32.24    2.02  0. 1.0000     0.      0.00 
   4   6   2    166.95    3.74  0. 1.0000     0.      0.00 
   5   6   2    165.26    2.97  0. 1.0000     0.      0.00 
   6   6   2    134.71    3.64  0. 1.0000     0.      0.00 
   7   6   2      6.31    4.01  0. 1.0000     0.      0.00 
   8   6   2      0.00   11.48  0. 1.0000     0.      0.00 
   9   6   2     36.08   52.69  0. 1.0000     0.      0.00 
  10   6   2    197.15   35.12  0. 1.0000     0.      0.00 
  11   6   2      8.81   15.11  0. 1.0000     0.      0.00 
 -14   7   2     11.39   12.69  0. 1.0000     0.      0.00 
 -13   7   2      6.90   10.18  0. 1.0000     0.      0.00 
 -12   7   2    109.90    8.63  0. 1.0000     0.      0.00 
 -11   7   2      6.85    3.25  0. 1.0000     0.      0.00 
 -10   7   2     30.52    1.88  0. 1.0000     0.      0.00 
  -9   7   2     16.62    1.82  0. 1.0000     0.      0.00 
  -8   7   2    140.62    3.50  0. 1.0000     0.      0.00 
  -7   7   2     25.59    2.77  0. 1.0000     0.      0.00 
  -6   7   2     54.70    2.79  0. 1.0000     0.      0.00 
  -5   7   2     90.09    3.36  0. 1.0000     0.      0.00 
  -4   7   2     11.03    1.58  0. 1.0000     0.      0.00 
  -3   7   2    565.70    6.71  0. 1.0000     0.      0.00 
  -2   7   2    164.40    2.77  0. 1.0000     0.      0.00 
  -1   7   2    297.33   10.32  0. 1.0000     0.      0.00 
   0   7   2    289.99    4.89  0. 1.0000     0.      0.00 
   1   7   2    677.65    6.59  0. 1.0000     0.      0.00 
   2   7   2    180.76    3.51  0. 1.0000     0.      0.00 
   3   7   2    346.63    5.05  0. 1.0000     0.      0.00 
   4   7   2     47.72    3.47  0. 1.0000     0.      0.00 
   5   7   2     30.37    4.41  0. 1.0000     0.      0.00 
   6   7   2    333.63   19.84  0. 1.0000     0.      0.00 
   7   7   2     99.90   40.97  0. 1.0000     0.      0.00 
   8   7   2      0.00   11.33  0. 1.0000     0.      0.00 
   9   7   2    164.24    9.56  0. 1.0000     0.      0.00 
  10   7   2      7.82    8.09  0. 1.0000     0.      0.00 
 -13   8   2     10.27    5.04  0. 1.0000     0.      0.00 
 -12   8   2    150.32    5.60  0. 1.0000     0.      0.00 
 -11   8   2     42.66    4.66  0. 1.0000     0.      0.00 
 -10   8   2      0.00    3.67  0. 1.0000     0.      0.00 
  -9   8   2    122.62    5.34  0. 1.0000     0.      0.00 
  -8   8   2     30.80   15.46  0. 1.0000     0.      0.00 
  -7   8   2    311.20   19.98  0. 1.0000     0.      0.00 
  -6   8   2     84.74    2.98  0. 1.0000     0.      0.00 
  -5   8   2      0.00    2.93  0. 1.0000     0.      0.00 
  -4   8   2     38.74    2.00  0. 1.0000     0.      0.00 
  -3   8   2     92.52    3.37  0. 1.0000     0.      0.00 
  -2   8   2     39.41    1.62  0. 1.0000     0.      0.00 
  -1   8   2    402.53    6.68  0. 1.0000     0.      0.00 
   0   8   2     18.83    2.44  0. 1.0000     0.      0.00 
   1   8   2    292.63    4.25  0. 1.0000     0.      0.00 
   2   8   2     35.10    3.09  0. 1.0000     0.      0.00 
   4   8   2     85.60   29.59  0. 1.0000     0.      0.00 
   5   8   2    135.40    6.38  0. 1.0000     0.      0.00 
   6   8   2    110.89    5.74  0. 1.0000     0.      0.00 
   7   8   2    120.93    7.80  0. 1.0000     0.      0.00 
   8   8   2     78.44    6.32  0. 1.0000     0.      0.00 
   9   8   2     40.40    5.71  0. 1.0000     0.      0.00 
 -13   9   2      5.19   13.36  0. 1.0000     0.      0.00 
 -12   9   2      2.82   19.00  0. 1.0000     0.      0.00 
 -11   9   2      0.00   45.01  0. 1.0000     0.      0.00 
 -10   9   2     10.61   12.70  0. 1.0000     0.      0.00 
  -9   9   2    131.53    6.45  0. 1.0000     0.      0.00 
  -8   9   2    167.67    4.00  0. 1.0000     0.      0.00 
  -7   9   2      0.00    3.03  0. 1.0000     0.      0.00 
  -6   9   2    154.50    3.30  0. 1.0000     0.      0.00 
  -5   9   2     81.63    3.50  0. 1.0000     0.      0.00 
  -4   9   2      0.00    2.43  0. 1.0000     0.      0.00 
  -3   9   2    197.57    3.72  0. 1.0000     0.      0.00 
  -2   9   2    123.94    3.60  0. 1.0000     0.      0.00 
  -1   9   2     54.44    4.28  0. 1.0000     0.      0.00 
   0   9   2    249.35   29.89  0. 1.0000     0.      0.00 
   1   9   2     66.65   10.24  0. 1.0000     0.      0.00 
   2   9   2    177.46    5.63  0. 1.0000     0.      0.00 
   3   9   2     77.85    4.30  0. 1.0000     0.      0.00 
   4   9   2    219.59    4.76  0. 1.0000     0.      0.00 
   5   9   2    182.80    5.23  0. 1.0000     0.      0.00 
   6   9   2     40.69    6.94  0. 1.0000     0.      0.00 
   7   9   2     15.20    6.26  0. 1.0000     0.      0.00 
   8   9   2     23.42    7.50  0. 1.0000     0.      0.00 
 -10  10   2     12.89    4.39  0. 1.0000     0.      0.00 
  -9  10   2    204.64    3.81  0. 1.0000     0.      0.00 
  -8  10   2      0.00    2.46  0. 1.0000     0.      0.00 
  -7  10   2      0.00    2.76  0. 1.0000     0.      0.00 
  -6  10   2     73.90    3.64  0. 1.0000     0.      0.00 
  -5  10   2     74.17    4.20  0. 1.0000     0.      0.00 
  -4  10   2    153.82    5.53  0. 1.0000     0.      0.00 
  -3  10   2     26.11   34.00  0. 1.0000     0.      0.00 
  -2  10   2      0.00   18.13  0. 1.0000     0.      0.00 
  -1  10   2      0.00    5.99  0. 1.0000     0.      0.00 
   0  10   2     67.72    3.55  0. 1.0000     0.      0.00 
   1  10   2    264.70    4.83  0. 1.0000     0.      0.00 
   2  10   2     14.46    3.15  0. 1.0000     0.      0.00 
   3  10   2     25.13    2.91  0. 1.0000     0.      0.00 
   4  10   2    232.33    7.25  0. 1.0000     0.      0.00 
   5  10   2      5.88    6.46  0. 1.0000     0.      0.00 
   6  10   2      9.10    9.59  0. 1.0000     0.      0.00 
   7  10   2      7.87   22.39  0. 1.0000     0.      0.00 
 -11  11   2     12.60    6.43  0. 1.0000     0.      0.00 
 -10  11   2      0.00    5.10  0. 1.0000     0.      0.00 
  -9  11   2    117.48    9.66  0. 1.0000     0.      0.00 
  -8  11   2      0.00    7.07  0. 1.0000     0.      0.00 
  -7  11   2      8.36   12.32  0. 1.0000     0.      0.00 
  -6  11   2    409.46   35.79  0. 1.0000     0.      0.00 
  -5  11   2     17.86   24.97  0. 1.0000     0.      0.00 
  -4  11   2      0.00    7.08  0. 1.0000     0.      0.00 
  -3  11   2    184.10    5.03  0. 1.0000     0.      0.00 
  -2  11   2     19.89    3.57  0. 1.0000     0.      0.00 
  -1  11   2      0.00    3.26  0. 1.0000     0.      0.00 
   0  11   2    264.06    4.55  0. 1.0000     0.      0.00 
   1  11   2      0.00    3.56  0. 1.0000     0.      0.00 
   2  11   2     91.24    5.27  0. 1.0000     0.      0.00 
   3  11   2     23.75    7.02  0. 1.0000     0.      0.00 
   4  11   2     57.68   14.54  0. 1.0000     0.      0.00 
   5  11   2      0.00   29.06  0. 1.0000     0.      0.00 
   6  11   2      9.56   42.72  0. 1.0000     0.      0.00 
 -11  12   2     19.47   30.60  0. 1.0000     0.      0.00 
 -10  12   2     41.36   27.84  0. 1.0000     0.      0.00 
  -7  12   2      9.10   14.84  0. 1.0000     0.      0.00 
  -6  12   2     70.81    9.94  0. 1.0000     0.      0.00 
  -5  12   2      0.00    8.19  0. 1.0000     0.      0.00 
  -4  12   2     10.81    6.29  0. 1.0000     0.      0.00 
  -3  12   2      0.00    3.81  0. 1.0000     0.      0.00 
  -2  12   2    157.40    7.80  0. 1.0000     0.      0.00 
  -1  12   2     69.63    6.77  0. 1.0000     0.      0.00 
   0  12   2    122.13    7.92  0. 1.0000     0.      0.00 
   1  12   2     44.16   16.05  0. 1.0000     0.      0.00 
   3  12   2     31.28   29.56  0. 1.0000     0.      0.00 
   4  12   2     61.01   15.05  0. 1.0000     0.      0.00 
   5  12   2     18.81   12.09  0. 1.0000     0.      0.00 
 -10  13   2      9.44   16.54  0. 1.0000     0.      0.00 
  -9  13   2     37.99   14.54  0. 1.0000     0.      0.00 
  -8  13   2     22.61    8.99  0. 1.0000     0.      0.00 
  -7  13   2      0.00    5.79  0. 1.0000     0.      0.00 
  -6  13   2    121.99    4.79  0. 1.0000     0.      0.00 
  -5  13   2     18.09    4.39  0. 1.0000     0.      0.00 
  -4  13   2     21.63    5.40  0. 1.0000     0.      0.00 
  -3  13   2    164.95    9.23  0. 1.0000     0.      0.00 
  -2  13   2      0.00   25.30  0. 1.0000     0.      0.00 
   0  13   2     12.39   39.85  0. 1.0000     0.      0.00 
   1  13   2      0.00   16.37  0. 1.0000     0.      0.00 
   2  13   2     19.25   10.03  0. 1.0000     0.      0.00 
   3  13   2     37.74    8.51  0. 1.0000     0.      0.00 
  -8  14   2     10.68    5.95  0. 1.0000     0.      0.00 
  -7  14   2     24.38    8.80  0. 1.0000     0.      0.00 
  -6  14   2      1.66   12.89  0. 1.0000     0.      0.00 
  -5  14   2     43.04   55.50  0. 1.0000     0.      0.00 
  -3  14   2     57.45   32.45  0. 1.0000     0.      0.00 
  -2  14   2     12.86   15.11  0. 1.0000     0.      0.00 
  -1  14   2      0.00   10.16  0. 1.0000     0.      0.00 
   0  14   2     27.44    7.44  0. 1.0000     0.      0.00 
   1  14   2     64.12    6.23  0. 1.0000     0.      0.00 
  -5  15   2      9.95   23.90  0. 1.0000     0.      0.00 
  -4  15   2      1.48   13.47  0. 1.0000     0.      0.00 
  -3  15   2     30.23    9.18  0. 1.0000     0.      0.00 
  -2  15   2      8.19   20.91  0. 1.0000     0.      0.00 
   2 -15   3    216.90    6.74  0. 1.0000     0.      0.00 
   3 -15   3     45.98    8.75  0. 1.0000     0.      0.00 
   4 -15   3      0.42   11.92  0. 1.0000     0.      0.00 
   5 -15   3     23.26   19.29  0. 1.0000     0.      0.00 
  -2 -14   3     31.91   17.94  0. 1.0000     0.      0.00 
  -1 -14   3     22.21    5.29  0. 1.0000     0.      0.00 
   0 -14   3     87.21    6.85  0. 1.0000     0.      0.00 
   1 -14   3      9.89    9.08  0. 1.0000     0.      0.00 
   2 -14   3     22.98   13.33  0. 1.0000     0.      0.00 
   3 -14   3      6.35   32.76  0. 1.0000     0.      0.00 
   5 -14   3     32.12   29.25  0. 1.0000     0.      0.00 
   6 -14   3      9.91   10.84  0. 1.0000     0.      0.00 
   7 -14   3     46.03    7.94  0. 1.0000     0.      0.00 
   8 -14   3     23.43    6.10  0. 1.0000     0.      0.00 
  -4 -13   3      3.36   15.33  0. 1.0000     0.      0.00 
  -3 -13   3     59.03    7.69  0. 1.0000     0.      0.00 
  -2 -13   3     33.66    8.69  0. 1.0000     0.      0.00 
  -1 -13   3     15.52   12.03  0. 1.0000     0.      0.00 
   0 -13   3    215.68   30.61  0. 1.0000     0.      0.00 
   2 -13   3     59.23   15.26  0. 1.0000     0.      0.00 
   3 -13   3      4.66    6.52  0. 1.0000     0.      0.00 
   4 -13   3      0.00    6.33  0. 1.0000     0.      0.00 
   5 -13   3    248.78    6.13  0. 1.0000     0.      0.00 
   6 -13   3    351.95    7.05  0. 1.0000     0.      0.00 
   7 -13   3     38.90    5.76  0. 1.0000     0.      0.00 
   8 -13   3     15.19    8.04  0. 1.0000     0.      0.00 
   9 -13   3     22.55   12.73  0. 1.0000     0.      0.00 
  10 -13   3     45.13   19.50  0. 1.0000     0.      0.00 
  -5 -12   3      0.00   10.81  0. 1.0000     0.      0.00 
  -4 -12   3    312.22   18.91  0. 1.0000     0.      0.00 
  -3 -12   3    104.75   38.34  0. 1.0000     0.      0.00 
  -1 -12   3      9.79   13.90  0. 1.0000     0.      0.00 
   0 -12   3     54.23    7.10  0. 1.0000     0.      0.00 
   1 -12   3    117.13    6.11  0. 1.0000     0.      0.00 
   2 -12   3    123.53    4.71  0. 1.0000     0.      0.00 
   3 -12   3      0.00    2.56  0. 1.0000     0.      0.00 
   4 -12   3      0.00    5.46  0. 1.0000     0.      0.00 
   5 -12   3    179.68    7.78  0. 1.0000     0.      0.00 
   6 -12   3     58.44    8.96  0. 1.0000     0.      0.00 
   7 -12   3      0.00   12.63  0. 1.0000     0.      0.00 
   8 -12   3     46.98   27.06  0. 1.0000     0.      0.00 
  10 -12   3      2.97   29.90  0. 1.0000     0.      0.00 
  11 -12   3    109.42   21.23  0. 1.0000     0.      0.00 
  -6 -11   3     29.31   37.27  0. 1.0000     0.      0.00 
  -5 -11   3    124.08   30.96  0. 1.0000     0.      0.00 
  -4 -11   3     54.51   15.53  0. 1.0000     0.      0.00 
  -3 -11   3     21.33    6.58  0. 1.0000     0.      0.00 
  -2 -11   3      4.65    4.76  0. 1.0000     0.      0.00 
  -1 -11   3     61.70    3.33  0. 1.0000     0.      0.00 
   0 -11   3    463.12    9.62  0. 1.0000     0.      0.00 
   1 -11   3    360.75    6.66  0. 1.0000     0.      0.00 
   2 -11   3    590.24    9.09  0. 1.0000     0.      0.00 
   3 -11   3    301.23    6.41  0. 1.0000     0.      0.00 
   4 -11   3     59.24    5.85  0. 1.0000     0.      0.00 
   5 -11   3    237.44   23.06  0. 1.0000     0.      0.00 
   7 -11   3      0.00   14.81  0. 1.0000     0.      0.00 
   8 -11   3      5.22    7.36  0. 1.0000     0.      0.00 
   9 -11   3    151.91    8.86  0. 1.0000     0.      0.00 
  10 -11   3    112.29    5.08  0. 1.0000     0.      0.00 
  11 -11   3      3.84    4.63  0. 1.0000     0.      0.00 
  12 -11   3     50.76   10.00  0. 1.0000     0.      0.00 
  -8 -10   3      0.00   62.88  0. 1.0000     0.      0.00 
  -7 -10   3     75.21   20.83  0. 1.0000     0.      0.00 
  -6 -10   3      3.69    8.17  0. 1.0000     0.      0.00 
  -5 -10   3     21.24    6.17  0. 1.0000     0.      0.00 
  -4 -10   3    286.92    8.95  0. 1.0000     0.      0.00 
  -3 -10   3      0.01    2.93  0. 1.0000     0.      0.00 
  -2 -10   3     82.91    3.32  0. 1.0000     0.      0.00 
  -1 -10   3    387.73    6.06  0. 1.0000     0.      0.00 
   0 -10   3    320.64    5.71  0. 1.0000     0.      0.00 
   1 -10   3      3.15    4.15  0. 1.0000     0.      0.00 
   2 -10   3    100.44   19.30  0. 1.0000     0.      0.00 
   3 -10   3     28.94   33.93  0. 1.0000     0.      0.00 
   4 -10   3    103.46    5.11  0. 1.0000     0.      0.00 
   5 -10   3     35.32    3.75  0. 1.0000     0.      0.00 
   6 -10   3      0.00    4.01  0. 1.0000     0.      0.00 
   7 -10   3      0.00    3.07  0. 1.0000     0.      0.00 
   8 -10   3    114.87    3.59  0. 1.0000     0.      0.00 
   9 -10   3    388.24    5.54  0. 1.0000     0.      0.00 
  10 -10   3     45.31    5.75  0. 1.0000     0.      0.00 
  11 -10   3    189.65   16.36  0. 1.0000     0.      0.00 
  12 -10   3      0.00   18.78  0. 1.0000     0.      0.00 
  -9  -9   3    105.04   22.67  0. 1.0000     0.      0.00 
  -8  -9   3     47.59    8.24  0. 1.0000     0.      0.00 
  -7  -9   3      6.55    6.11  0. 1.0000     0.      0.00 
  -6  -9   3     32.39    3.97  0. 1.0000     0.      0.00 
  -5  -9   3     55.96    4.91  0. 1.0000     0.      0.00 
  -4  -9   3    472.49    7.05  0. 1.0000     0.      0.00 
  -3  -9   3     87.79    5.45  0. 1.0000     0.      0.00 
  -2  -9   3      9.12    4.42  0. 1.0000     0.      0.00 
  -1  -9   3    887.38   28.83  0. 1.0000     0.      0.00 
   0  -9   3     29.55   10.05  0. 1.0000     0.      0.00 
   1  -9   3    575.92    8.37  0. 1.0000     0.      0.00 
   2  -9   3      0.00    4.71  0. 1.0000     0.      0.00 
   3  -9   3    200.83    3.98  0. 1.0000     0.      0.00 
   4  -9   3    402.56    7.35  0. 1.0000     0.      0.00 
   5  -9   3   1506.56   13.80  0. 1.0000     0.      0.00 
   6  -9   3      0.00    2.35  0. 1.0000     0.      0.00 
   7  -9   3    426.16    5.73  0. 1.0000     0.      0.00 
   8  -9   3     31.67    3.40  0. 1.0000     0.      0.00 
   9  -9   3     10.79    6.24  0. 1.0000     0.      0.00 
  10  -9   3      3.79   15.15  0. 1.0000     0.      0.00 
  12  -9   3     17.88   17.65  0. 1.0000     0.      0.00 
  13  -9   3     24.61   13.97  0. 1.0000     0.      0.00 
  -9  -8   3     21.06    5.06  0. 1.0000     0.      0.00 
  -8  -8   3     17.47    6.34  0. 1.0000     0.      0.00 
  -7  -8   3     22.65    7.06  0. 1.0000     0.      0.00 
  -6  -8   3     84.62    5.53  0. 1.0000     0.      0.00 
  -5  -8   3    254.49    8.51  0. 1.0000     0.      0.00 
  -4  -8   3    136.43   18.20  0. 1.0000     0.      0.00 
  -3  -8   3     34.08   18.65  0. 1.0000     0.      0.00 
  -2  -8   3     46.31    4.13  0. 1.0000     0.      0.00 
  -1  -8   3    101.40    2.96  0. 1.0000     0.      0.00 
   0  -8   3      0.93    2.36  0. 1.0000     0.      0.00 
   1  -8   3     62.27    2.34  0. 1.0000     0.      0.00 
   2  -8   3     74.90    4.89  0. 1.0000     0.      0.00 
   3  -8   3    730.69    8.61  0. 1.0000     0.      0.00 
   4  -8   3    298.29    4.55  0. 1.0000     0.      0.00 
   5  -8   3   1421.29   14.35  0. 1.0000     0.      0.00 
   6  -8   3      0.00    2.72  0. 1.0000     0.      0.00 
   7  -8   3    528.05   21.30  0. 1.0000     0.      0.00 
   8  -8   3    484.44   38.28  0. 1.0000     0.      0.00 
   9  -8   3      0.00    4.79  0. 1.0000     0.      0.00 
  10  -8   3    226.85    5.48  0. 1.0000     0.      0.00 
  11  -8   3      7.71    6.02  0. 1.0000     0.      0.00 
  12  -8   3     61.90    5.41  0. 1.0000     0.      0.00 
  13  -8   3     22.85    4.70  0. 1.0000     0.      0.00 
 -10  -7   3      7.32    8.18  0. 1.0000     0.      0.00 
  -9  -7   3     44.13    8.41  0. 1.0000     0.      0.00 
  -8  -7   3     26.27   12.11  0. 1.0000     0.      0.00 
  -7  -7   3      0.00   25.38  0. 1.0000     0.      0.00 
  -6  -7   3   1047.81   48.99  0. 1.0000     0.      0.00 
  -5  -7   3      8.04    4.42  0. 1.0000     0.      0.00 
  -4  -7   3     50.45    2.73  0. 1.0000     0.      0.00 
  -3  -7   3     27.26    2.18  0. 1.0000     0.      0.00 
  -2  -7   3    323.10    5.64  0. 1.0000     0.      0.00 
  -1  -7   3   1350.71   18.52  0. 1.0000     0.      0.00 
   0  -7   3    809.06   10.66  0. 1.0000     0.      0.00 
   1  -7   3    978.40   10.05  0. 1.0000     0.      0.00 
   2  -7   3    823.72    9.18  0. 1.0000     0.      0.00 
   3  -7   3    568.33    6.49  0. 1.0000     0.      0.00 
   4  -7   3   1112.10   14.16  0. 1.0000     0.      0.00 
   5  -7   3     29.66    2.70  0. 1.0000     0.      0.00 
   6  -7   3     49.36    2.33  0. 1.0000     0.      0.00 
   7  -7   3     51.53    2.59  0. 1.0000     0.      0.00 
   8  -7   3    227.30    4.25  0. 1.0000     0.      0.00 
   9  -7   3      5.63    1.91  0. 1.0000     0.      0.00 
  10  -7   3    141.62    2.92  0. 1.0000     0.      0.00 
  11  -7   3      2.34    3.92  0. 1.0000     0.      0.00 
  12  -7   3     95.49    7.47  0. 1.0000     0.      0.00 
  13  -7   3      4.99   12.63  0. 1.0000     0.      0.00 
 -11  -6   3     41.76   13.21  0. 1.0000     0.      0.00 
 -10  -6   3    338.78   40.54  0. 1.0000     0.      0.00 
  -9  -6   3     55.81   34.77  0. 1.0000     0.      0.00 
  -8  -6   3      0.00   10.82  0. 1.0000     0.      0.00 
  -7  -6   3      9.71    3.70  0. 1.0000     0.      0.00 
  -6  -6   3     22.01    3.36  0. 1.0000     0.      0.00 
  -5  -6   3    329.16    6.59  0. 1.0000     0.      0.00 
  -4  -6   3    101.70    1.82  0. 1.0000     0.      0.00 
  -3  -6   3     52.34    2.10  0. 1.0000     0.      0.00 
  -2  -6   3     51.48    2.15  0. 1.0000     0.      0.00 
  -1  -6   3   1028.53   14.50  0. 1.0000     0.      0.00 
   0  -6   3    579.65    6.17  0. 1.0000     0.      0.00 
   1  -6   3     15.46    0.87  0. 1.0000     0.      0.00 
   2  -6   3      6.82    0.81  0. 1.0000     0.      0.00 
   3  -6   3     94.37    3.97  0. 1.0000     0.      0.00 
   4  -6   3    618.74    6.93  0. 1.0000     0.      0.00 
   5  -6   3    182.00    2.54  0. 1.0000     0.      0.00 
   6  -6   3      2.42    1.53  0. 1.0000     0.      0.00 
   7  -6   3     99.39    2.51  0. 1.0000     0.      0.00 
   8  -6   3   1479.67   13.22  0. 1.0000     0.      0.00 
   9  -6   3     19.31    2.51  0. 1.0000     0.      0.00 
  10  -6   3   1391.96   18.20  0. 1.0000     0.      0.00 
  11  -6   3     46.23   10.86  0. 1.0000     0.      0.00 
  12  -6   3     82.44   22.24  0. 1.0000     0.      0.00 
  13  -6   3      0.00   54.43  0. 1.0000     0.      0.00 
  14  -6   3     12.09   34.57  0. 1.0000     0.      0.00 
 -11  -5   3     75.50   19.02  0. 1.0000     0.      0.00 
 -10  -5   3    358.03   10.48  0. 1.0000     0.      0.00 
  -9  -5   3     86.51    5.86  0. 1.0000     0.      0.00 
  -8  -5   3     37.26    3.26  0. 1.0000     0.      0.00 
  -7  -5   3     52.26    2.19  0. 1.0000     0.      0.00 
  -6  -5   3    655.52    7.80  0. 1.0000     0.      0.00 
  -5  -5   3    438.43   12.79  0. 1.0000     0.      0.00 
  -4  -5   3    596.04    7.06  0. 1.0000     0.      0.00 
  -3  -5   3   1108.97   12.43  0. 1.0000     0.      0.00 
  -2  -5   3    375.63    3.81  0. 1.0000     0.      0.00 
  -1  -5   3    383.15    4.58  0. 1.0000     0.      0.00 
   0  -5   3    680.55    7.76  0. 1.0000     0.      0.00 
   1  -5   3     13.39    1.17  0. 1.0000     0.      0.00 
   2  -5   3    654.57    6.80  0. 1.0000     0.      0.00 
   3  -5   3    292.28    3.21  0. 1.0000     0.      0.00 
   4  -5   3   2113.36   15.69  0. 1.0000     0.      0.00 
   5  -5   3    102.47    1.66  0. 1.0000     0.      0.00 
   6  -5   3   1069.32   10.67  0. 1.0000     0.      0.00 
   7  -5   3     26.82    2.03  0. 1.0000     0.      0.00 
   8  -5   3    532.78    6.12  0. 1.0000     0.      0.00 
   9  -5   3      6.14    8.96  0. 1.0000     0.      0.00 
  10  -5   3    101.62   27.74  0. 1.0000     0.      0.00 
  11  -5   3     11.59    7.98  0. 1.0000     0.      0.00 
  12  -5   3     18.27    7.68  0. 1.0000     0.      0.00 
  13  -5   3     13.53    6.82  0. 1.0000     0.      0.00 
  14  -5   3     15.99    6.15  0. 1.0000     0.      0.00 
 -12  -4   3     10.56    8.56  0. 1.0000     0.      0.00 
 -11  -4   3     12.14    5.57  0. 1.0000     0.      0.00 
 -10  -4   3     58.01    3.79  0. 1.0000     0.      0.00 
  -9  -4   3      3.26    3.73  0. 1.0000     0.      0.00 
  -8  -4   3      3.63    3.08  0. 1.0000     0.      0.00 
  -7  -4   3    401.38    6.64  0. 1.0000     0.      0.00 
  -6  -4   3    129.90    5.57  0. 1.0000     0.      0.00 
  -5  -4   3      2.85    1.61  0. 1.0000     0.      0.00 
  -4  -4   3     89.77    1.72  0. 1.0000     0.      0.00 
  -3  -4   3   1549.96   15.67  0. 1.0000     0.      0.00 
  -2  -4   3    183.04    3.30  0. 1.0000     0.      0.00 
  -1  -4   3   1544.90   13.89  0. 1.0000     0.      0.00 
   0  -4   3    121.27    3.42  0. 1.0000     0.      0.00 
   1  -4   3     38.94    1.08  0. 1.0000     0.      0.00 
   2  -4   3    689.78    6.61  0. 1.0000     0.      0.00 
   3  -4   3   2661.05   26.10  0. 1.0000     0.      0.00 
   4  -4   3   1750.39   18.85  0. 1.0000     0.      0.00 
   5  -4   3    294.60    3.15  0. 1.0000     0.      0.00 
   6  -4   3    489.79    5.63  0. 1.0000     0.      0.00 
   7  -4   3    750.40   13.04  0. 1.0000     0.      0.00 
   8  -4   3     22.89    2.31  0. 1.0000     0.      0.00 
   9  -4   3    255.02    4.63  0. 1.0000     0.      0.00 
  10  -4   3     27.40    3.37  0. 1.0000     0.      0.00 
  11  -4   3    223.95    5.02  0. 1.0000     0.      0.00 
  12  -4   3      2.99    3.41  0. 1.0000     0.      0.00 
  13  -4   3    409.69    9.74  0. 1.0000     0.      0.00 
  14  -4   3     13.59    9.70  0. 1.0000     0.      0.00 
 -12  -3   3      1.11    5.28  0. 1.0000     0.      0.00 
 -11  -3   3      7.24    6.23  0. 1.0000     0.      0.00 
 -10  -3   3    228.60    9.97  0. 1.0000     0.      0.00 
  -9  -3   3     56.33    5.81  0. 1.0000     0.      0.00 
  -8  -3   3     50.40   13.95  0. 1.0000     0.      0.00 
  -7  -3   3   2742.85   61.03  0. 1.0000     0.      0.00 
  -6  -3   3     27.14    2.17  0. 1.0000     0.      0.00 
  -5  -3   3   1046.67   10.30  0. 1.0000     0.      0.00 
  -4  -3   3      4.84    1.42  0. 1.0000     0.      0.00 
  -3  -3   3    503.51    6.60  0. 1.0000     0.      0.00 
  -2  -3   3   1149.04   10.40  0. 1.0000     0.      0.00 
  -1  -3   3   1755.82   17.26  0. 1.0000     0.      0.00 
   0  -3   3    138.89    5.50  0. 1.0000     0.      0.00 
   1  -3   3      8.75    0.40  0. 1.0000     0.      0.00 
   2  -3   3     18.88    0.52  0. 1.0000     0.      0.00 
   3  -3   3      5.58    0.41  0. 1.0000     0.      0.00 
   4  -3   3     48.67    0.86  0. 1.0000     0.      0.00 
   5  -3   3    443.24    5.58  0. 1.0000     0.      0.00 
   6  -3   3     56.26    1.50  0. 1.0000     0.      0.00 
   7  -3   3    152.92    2.48  0. 1.0000     0.      0.00 
   8  -3   3    134.89    3.56  0. 1.0000     0.      0.00 
   9  -3   3     26.65    1.69  0. 1.0000     0.      0.00 
  10  -3   3      9.08    3.06  0. 1.0000     0.      0.00 
  11  -3   3    265.05    6.22  0. 1.0000     0.      0.00 
  12  -3   3     15.56    8.12  0. 1.0000     0.      0.00 
  13  -3   3    480.00   20.94  0. 1.0000     0.      0.00 
  14  -3   3      4.60   28.65  0. 1.0000     0.      0.00 
 -13  -2   3     47.79   10.19  0. 1.0000     0.      0.00 
 -12  -2   3     18.96   10.54  0. 1.0000     0.      0.00 
 -11  -2   3    170.42   22.77  0. 1.0000     0.      0.00 
 -10  -2   3     46.77   17.71  0. 1.0000     0.      0.00 
  -9  -2   3     89.09    5.60  0. 1.0000     0.      0.00 
  -8  -2   3    191.81    4.14  0. 1.0000     0.      0.00 
  -7  -2   3    219.25    3.62  0. 1.0000     0.      0.00 
  -6  -2   3      1.74    1.65  0. 1.0000     0.      0.00 
  -5  -2   3    535.27    6.55  0. 1.0000     0.      0.00 
  -4  -2   3      3.22    0.79  0. 1.0000     0.      0.00 
  -3  -2   3    565.72    6.83  0. 1.0000     0.      0.00 
  -2  -2   3    689.16    6.10  0. 1.0000     0.      0.00 
  -1  -2   3   5531.91   45.32  0. 1.0000     0.      0.00 
   0  -2   3   1207.28    9.66  0. 1.0000     0.      0.00 
   1  -2   3   1331.83   11.81  0. 1.0000     0.      0.00 
   2  -2   3   4856.58   39.70  0. 1.0000     0.      0.00 
   3  -2   3    441.88    4.05  0. 1.0000     0.      0.00 
   4  -2   3    970.72   11.63  0. 1.0000     0.      0.00 
   5  -2   3     16.62    0.92  0. 1.0000     0.      0.00 
   6  -2   3    237.03    3.47  0. 1.0000     0.      0.00 
   7  -2   3   1275.43   15.69  0. 1.0000     0.      0.00 
   8  -2   3    391.11    4.98  0. 1.0000     0.      0.00 
   9  -2   3    909.54   13.72  0. 1.0000     0.      0.00 
  10  -2   3      7.64    5.19  0. 1.0000     0.      0.00 
  11  -2   3     96.15   12.96  0. 1.0000     0.      0.00 
  13  -2   3     36.08   16.33  0. 1.0000     0.      0.00 
  14  -2   3      7.42   11.80  0. 1.0000     0.      0.00 
 -13  -1   3     76.44   29.80  0. 1.0000     0.      0.00 
 -12  -1   3    309.15   18.46  0. 1.0000     0.      0.00 
 -11  -1   3    247.15    9.48  0. 1.0000     0.      0.00 
 -10  -1   3      9.80    3.61  0. 1.0000     0.      0.00 
  -9  -1   3     72.69    3.15  0. 1.0000     0.      0.00 
  -8  -1   3     51.85    1.88  0. 1.0000     0.      0.00 
  -7  -1   3   1310.93   15.08  0. 1.0000     0.      0.00 
  -6  -1   3     16.77    1.67  0. 1.0000     0.      0.00 
  -5  -1   3   1091.97   10.33  0. 1.0000     0.      0.00 
  -4  -1   3   3932.54   36.23  0. 1.0000     0.      0.00 
  -3  -1   3    105.14    1.30  0. 1.0000     0.      0.00 
  -2  -1   3   2652.64   20.30  0. 1.0000     0.      0.00 
  -1  -1   3      6.55    0.23  0. 1.0000     0.      0.00 
   0  -1   3    210.51    1.77  0. 1.0000     0.      0.00 
   1  -1   3    266.09    2.42  0. 1.0000     0.      0.00 
   2  -1   3     65.67    2.53  0. 1.0000     0.      0.00 
   3  -1   3    213.71    1.79  0. 1.0000     0.      0.00 
   4  -1   3     18.86    1.18  0. 1.0000     0.      0.00 
   5  -1   3    119.01    2.24  0. 1.0000     0.      0.00 
   6  -1   3    716.14    8.76  0. 1.0000     0.      0.00 
   7  -1   3    180.22    2.96  0. 1.0000     0.      0.00 
   8  -1   3    969.45   21.72  0. 1.0000     0.      0.00 
   9  -1   3     40.48    9.48  0. 1.0000     0.      0.00 
  10  -1   3     39.20    4.90  0. 1.0000     0.      0.00 
  11  -1   3      5.92    4.62  0. 1.0000     0.      0.00 
  12  -1   3     22.38    5.60  0. 1.0000     0.      0.00 
  13  -1   3     50.35    5.36  0. 1.0000     0.      0.00 
  14  -1   3     11.74    5.77  0. 1.0000     0.      0.00 
 -13   0   3     16.41    7.49  0. 1.0000     0.      0.00 
 -12   0   3    135.59    5.97  0. 1.0000     0.      0.00 
 -11   0   3     72.26    3.42  0. 1.0000     0.      0.00 
 -10   0   3     90.29    3.29  0. 1.0000     0.      0.00 
  -9   0   3      2.57    2.77  0. 1.0000     0.      0.00 
  -8   0   3     22.94    3.08  0. 1.0000     0.      0.00 
  -7   0   3    524.80    8.52  0. 1.0000     0.      0.00 
  -6   0   3     30.03    1.14  0. 1.0000     0.      0.00 
  -5   0   3     32.29    1.04  0. 1.0000     0.      0.00 
  -4   0   3   2447.38   24.53  0. 1.0000     0.      0.00 
  -3   0   3      3.97    0.50  0. 1.0000     0.      0.00 
  -2   0   3   6370.40   76.25  0. 1.0000     0.      0.00 
  -1   0   3    403.32    4.10  0. 1.0000     0.      0.00 
   0   0   3      5.59    0.20  0. 1.0000     0.      0.00 
   1   0   3    271.75    3.20  0. 1.0000     0.      0.00 
   2   0   3   7732.77   79.39  0. 1.0000     0.      0.00 
   3   0   3     22.11    0.53  0. 1.0000     0.      0.00 
   4   0   3   3219.34   27.99  0. 1.0000     0.      0.00 
   5   0   3    271.39    2.75  0. 1.0000     0.      0.00 
   6   0   3      6.15    0.73  0. 1.0000     0.      0.00 
   7   0   3    386.26    4.82  0. 1.0000     0.      0.00 
   8   0   3      0.73    2.78  0. 1.0000     0.      0.00 
   9   0   3    104.53    3.34  0. 1.0000     0.      0.00 
  10   0   3    164.00    4.28  0. 1.0000     0.      0.00 
  11   0   3      7.20    3.73  0. 1.0000     0.      0.00 
  12   0   3    122.21    6.21  0. 1.0000     0.      0.00 
  13   0   3      1.71    8.28  0. 1.0000     0.      0.00 
 -14   1   3     13.77    5.36  0. 1.0000     0.      0.00 
 -13   1   3      7.93    5.43  0. 1.0000     0.      0.00 
 -12   1   3     52.62    5.73  0. 1.0000     0.      0.00 
 -11   1   3    104.17    4.85  0. 1.0000     0.      0.00 
 -10   1   3     13.75    5.12  0. 1.0000     0.      0.00 
  -9   1   3    420.81   19.70  0. 1.0000     0.      0.00 
  -8   1   3   1105.57   25.27  0. 1.0000     0.      0.00 
  -7   1   3    108.98    2.28  0. 1.0000     0.      0.00 
  -6   1   3    881.13    9.94  0. 1.0000     0.      0.00 
  -5   1   3    271.58    3.14  0. 1.0000     0.      0.00 
  -4   1   3    262.40    2.73  0. 1.0000     0.      0.00 
  -3   1   3      2.69    0.78  0. 1.0000     0.      0.00 
  -2   1   3    649.63    6.73  0. 1.0000     0.      0.00 
  -1   1   3    191.54    1.82  0. 1.0000     0.      0.00 
   0   1   3    285.77    2.40  0. 1.0000     0.      0.00 
   1   1   3    181.85    1.59  0. 1.0000     0.      0.00 
   2   1   3   1916.74   15.79  0. 1.0000     0.      0.00 
   3   1   3     45.79    0.75  0. 1.0000     0.      0.00 
   4   1   3   2776.49   23.42  0. 1.0000     0.      0.00 
   5   1   3   1326.07   19.10  0. 1.0000     0.      0.00 
   6   1   3     85.35    2.18  0. 1.0000     0.      0.00 
   7   1   3    502.07    5.97  0. 1.0000     0.      0.00 
   8   1   3    116.67    3.29  0. 1.0000     0.      0.00 
   9   1   3      5.66    2.99  0. 1.0000     0.      0.00 
  10   1   3     24.86    3.68  0. 1.0000     0.      0.00 
  11   1   3    385.33   12.21  0. 1.0000     0.      0.00 
  12   1   3     56.62   14.92  0. 1.0000     0.      0.00 
  13   1   3     38.68   24.04  0. 1.0000     0.      0.00 
 -14   2   3     28.71   10.32  0. 1.0000     0.      0.00 
 -13   2   3     48.38   11.40  0. 1.0000     0.      0.00 
 -12   2   3     32.37   55.54  0. 1.0000     0.      0.00 
 -11   2   3     14.13   21.10  0. 1.0000     0.      0.00 
 -10   2   3      4.97    5.14  0. 1.0000     0.      0.00 
  -9   2   3   1143.67   16.58  0. 1.0000     0.      0.00 
  -8   2   3     90.92    3.18  0. 1.0000     0.      0.00 
  -7   2   3    847.95   12.63  0. 1.0000     0.      0.00 
  -6   2   3    440.99    4.32  0. 1.0000     0.      0.00 
  -5   2   3      5.05    0.94  0. 1.0000     0.      0.00 
  -4   2   3   1103.96   12.56  0. 1.0000     0.      0.00 
  -3   2   3    636.23    5.99  0. 1.0000     0.      0.00 
  -2   2   3   4523.32   34.63  0. 1.0000     0.      0.00 
  -1   2   3    922.29    7.53  0. 1.0000     0.      0.00 
   0   2   3    978.66    8.14  0. 1.0000     0.      0.00 
   1   2   3   6250.65   49.59  0. 1.0000     0.      0.00 
   2   2   3    474.53    4.34  0. 1.0000     0.      0.00 
   3   2   3    823.90    8.69  0. 1.0000     0.      0.00 
   4   2   3    263.11    3.35  0. 1.0000     0.      0.00 
   5   2   3    537.42    7.61  0. 1.0000     0.      0.00 
   6   2   3    145.18    2.99  0. 1.0000     0.      0.00 
   7   2   3    565.89    7.24  0. 1.0000     0.      0.00 
   8   2   3     22.35    3.02  0. 1.0000     0.      0.00 
   9   2   3    179.82    8.07  0. 1.0000     0.      0.00 
  10   2   3      7.14   19.31  0. 1.0000     0.      0.00 
  11   2   3     79.97   30.25  0. 1.0000     0.      0.00 
  12   2   3     39.55   16.65  0. 1.0000     0.      0.00 
  13   2   3     78.58   10.32  0. 1.0000     0.      0.00 
 -14   3   3     29.23   25.82  0. 1.0000     0.      0.00 
 -13   3   3    495.95   26.20  0. 1.0000     0.      0.00 
 -12   3   3     12.93    7.85  0. 1.0000     0.      0.00 
 -11   3   3    186.16    5.67  0. 1.0000     0.      0.00 
 -10   3   3      9.08    2.89  0. 1.0000     0.      0.00 
  -9   3   3      2.60    1.66  0. 1.0000     0.      0.00 
  -8   3   3    529.53    5.82  0. 1.0000     0.      0.00 
  -7   3   3      3.42    1.77  0. 1.0000     0.      0.00 
  -6   3   3      6.80    1.47  0. 1.0000     0.      0.00 
  -5   3   3    650.83    7.17  0. 1.0000     0.      0.00 
  -4   3   3      5.40    0.51  0. 1.0000     0.      0.00 
  -3   3   3     58.34    0.89  0. 1.0000     0.      0.00 
  -2   3   3    102.41    1.16  0. 1.0000     0.      0.00 
  -1   3   3      4.78    0.39  0. 1.0000     0.      0.00 
   0   3   3    207.17    8.95  0. 1.0000     0.      0.00 
   1   3   3    491.67   10.29  0. 1.0000     0.      0.00 
   2   3   3    407.16    3.63  0. 1.0000     0.      0.00 
   3   3   3    215.61    2.71  0. 1.0000     0.      0.00 
   4   3   3     62.60    1.72  0. 1.0000     0.      0.00 
   5   3   3   1412.28   16.12  0. 1.0000     0.      0.00 
   6   3   3      0.00    2.27  0. 1.0000     0.      0.00 
   7   3   3   2049.60   55.01  0. 1.0000     0.      0.00 
   8   3   3     16.07   15.99  0. 1.0000     0.      0.00 
   9   3   3    274.39    8.23  0. 1.0000     0.      0.00 
  10   3   3     45.73    6.07  0. 1.0000     0.      0.00 
  11   3   3     37.93    5.64  0. 1.0000     0.      0.00 
  12   3   3     10.24    6.66  0. 1.0000     0.      0.00 
 -14   4   3     12.15    8.73  0. 1.0000     0.      0.00 
 -13   4   3    280.66    9.14  0. 1.0000     0.      0.00 
 -12   4   3     32.54    3.81  0. 1.0000     0.      0.00 
 -11   4   3    223.16    4.91  0. 1.0000     0.      0.00 
 -10   4   3      5.84    3.28  0. 1.0000     0.      0.00 
  -9   4   3    243.55    4.65  0. 1.0000     0.      0.00 
  -8   4   3     69.04    2.62  0. 1.0000     0.      0.00 
  -7   4   3    843.91   16.20  0. 1.0000     0.      0.00 
  -6   4   3    733.09    8.82  0. 1.0000     0.      0.00 
  -5   4   3    125.07    2.43  0. 1.0000     0.      0.00 
  -4   4   3   2023.85   22.73  0. 1.0000     0.      0.00 
  -3   4   3   2575.59   22.61  0. 1.0000     0.      0.00 
  -2   4   3    757.92    8.46  0. 1.0000     0.      0.00 
  -1   4   3     12.10    1.33  0. 1.0000     0.      0.00 
   0   4   3     38.70    1.12  0. 1.0000     0.      0.00 
   1   4   3   2558.33   27.89  0. 1.0000     0.      0.00 
   2   4   3      1.89    1.22  0. 1.0000     0.      0.00 
   3   4   3   1718.31   15.62  0. 1.0000     0.      0.00 
   4   4   3    329.57    4.43  0. 1.0000     0.      0.00 
   5   4   3     50.85    2.75  0. 1.0000     0.      0.00 
   6   4   3     59.78    2.76  0. 1.0000     0.      0.00 
   7   4   3     17.88    2.85  0. 1.0000     0.      0.00 
   8   4   3     34.97    3.45  0. 1.0000     0.      0.00 
   9   4   3     51.10    3.42  0. 1.0000     0.      0.00 
  10   4   3      6.70    3.64  0. 1.0000     0.      0.00 
  11   4   3      0.00    5.87  0. 1.0000     0.      0.00 
  12   4   3      8.63    8.88  0. 1.0000     0.      0.00 
 -14   5   3      7.44    6.14  0. 1.0000     0.      0.00 
 -13   5   3    131.29    7.36  0. 1.0000     0.      0.00 
 -12   5   3      8.66    7.02  0. 1.0000     0.      0.00 
 -11   5   3      5.48    7.31  0. 1.0000     0.      0.00 
 -10   5   3    476.45   51.82  0. 1.0000     0.      0.00 
  -9   5   3      7.97    5.59  0. 1.0000     0.      0.00 
  -8   5   3    586.11    7.00  0. 1.0000     0.      0.00 
  -7   5   3      0.00    2.25  0. 1.0000     0.      0.00 
  -6   5   3    973.49    9.61  0. 1.0000     0.      0.00 
  -5   5   3    268.60    2.95  0. 1.0000     0.      0.00 
  -4   5   3   1332.05   13.40  0. 1.0000     0.      0.00 
  -3   5   3     32.19    1.21  0. 1.0000     0.      0.00 
  -2   5   3    485.18    5.41  0. 1.0000     0.      0.00 
  -1   5   3      2.73    1.41  0. 1.0000     0.      0.00 
   0   5   3    233.08    2.84  0. 1.0000     0.      0.00 
   1   5   3    425.48    4.34  0. 1.0000     0.      0.00 
   2   5   3    440.09    4.42  0. 1.0000     0.      0.00 
   3   5   3    316.02    5.07  0. 1.0000     0.      0.00 
   4   5   3    449.86    4.93  0. 1.0000     0.      0.00 
   5   5   3     24.01    1.93  0. 1.0000     0.      0.00 
   6   5   3    470.91    5.84  0. 1.0000     0.      0.00 
   7   5   3    453.35    9.44  0. 1.0000     0.      0.00 
   8   5   3     75.81    3.48  0. 1.0000     0.      0.00 
   9   5   3      0.00    5.62  0. 1.0000     0.      0.00 
  10   5   3    373.41   11.67  0. 1.0000     0.      0.00 
  11   5   3      8.58   19.41  0. 1.0000     0.      0.00 
 -14   6   3     17.90   21.59  0. 1.0000     0.      0.00 
 -13   6   3    175.81   62.63  0. 1.0000     0.      0.00 
 -12   6   3     34.11   44.24  0. 1.0000     0.      0.00 
 -11   6   3      0.06    7.93  0. 1.0000     0.      0.00 
 -10   6   3   1382.52   17.03  0. 1.0000     0.      0.00 
  -9   6   3      0.00    2.84  0. 1.0000     0.      0.00 
  -8   6   3   1487.24   14.98  0. 1.0000     0.      0.00 
  -7   6   3    180.52    3.36  0. 1.0000     0.      0.00 
  -6   6   3      0.00    1.95  0. 1.0000     0.      0.00 
  -5   6   3    148.64    2.45  0. 1.0000     0.      0.00 
  -4   6   3   1123.31   12.56  0. 1.0000     0.      0.00 
  -3   6   3    227.23    4.17  0. 1.0000     0.      0.00 
  -2   6   3     33.45    0.96  0. 1.0000     0.      0.00 
  -1   6   3    153.95    2.29  0. 1.0000     0.      0.00 
   0   6   3    487.69    6.06  0. 1.0000     0.      0.00 
   1   6   3    686.76    7.84  0. 1.0000     0.      0.00 
   2   6   3     10.66    1.59  0. 1.0000     0.      0.00 
   3   6   3    546.61   10.02  0. 1.0000     0.      0.00 
   4   6   3    331.22    4.37  0. 1.0000     0.      0.00 
   5   6   3     24.11    2.10  0. 1.0000     0.      0.00 
   6   6   3     31.61    3.15  0. 1.0000     0.      0.00 
   7   6   3     36.32    5.89  0. 1.0000     0.      0.00 
   8   6   3     97.05   14.48  0. 1.0000     0.      0.00 
  10   6   3    117.21   51.08  0. 1.0000     0.      0.00 
  11   6   3      6.32   17.32  0. 1.0000     0.      0.00 
 -13   7   3     14.14   10.25  0. 1.0000     0.      0.00 
 -12   7   3    124.89    8.56  0. 1.0000     0.      0.00 
 -11   7   3     12.19    3.34  0. 1.0000     0.      0.00 
 -10   7   3     25.22    1.87  0. 1.0000     0.      0.00 
  -9   7   3      6.46    1.84  0. 1.0000     0.      0.00 
  -8   7   3     92.19    2.86  0. 1.0000     0.      0.00 
  -7   7   3    104.56    3.61  0. 1.0000     0.      0.00 
  -6   7   3     19.89    2.69  0. 1.0000     0.      0.00 
  -5   7   3    184.27    4.61  0. 1.0000     0.      0.00 
  -4   7   3    764.79   11.81  0. 1.0000     0.      0.00 
  -3   7   3    631.24   12.09  0. 1.0000     0.      0.00 
  -2   7   3    696.33    8.94  0. 1.0000     0.      0.00 
  -1   7   3   1369.03   19.22  0. 1.0000     0.      0.00 
   0   7   3    201.75    5.17  0. 1.0000     0.      0.00 
   1   7   3    879.83    9.72  0. 1.0000     0.      0.00 
   2   7   3    359.25    4.59  0. 1.0000     0.      0.00 
   3   7   3     11.08    4.30  0. 1.0000     0.      0.00 
   4   7   3    246.29    7.95  0. 1.0000     0.      0.00 
   5   7   3     78.66    5.27  0. 1.0000     0.      0.00 
   6   7   3    534.56   27.22  0. 1.0000     0.      0.00 
   7   7   3      0.00   40.07  0. 1.0000     0.      0.00 
   8   7   3     57.13   12.16  0. 1.0000     0.      0.00 
   9   7   3     24.35    9.23  0. 1.0000     0.      0.00 
  10   7   3     67.78    8.56  0. 1.0000     0.      0.00 
 -13   8   3     19.02    4.89  0. 1.0000     0.      0.00 
 -12   8   3     81.86    5.11  0. 1.0000     0.      0.00 
 -11   8   3      0.00    5.02  0. 1.0000     0.      0.00 
 -10   8   3    302.52    5.02  0. 1.0000     0.      0.00 
  -9   8   3     13.66    4.91  0. 1.0000     0.      0.00 
  -8   8   3    496.19   26.86  0. 1.0000     0.      0.00 
  -7   8   3    634.49   33.42  0. 1.0000     0.      0.00 
  -6   8   3     13.98    2.68  0. 1.0000     0.      0.00 
  -5   8   3   1835.74   19.30  0. 1.0000     0.      0.00 
  -4   8   3    276.38    6.68  0. 1.0000     0.      0.00 
  -3   8   3    739.96    8.06  0. 1.0000     0.      0.00 
  -2   8   3      0.00    1.42  0. 1.0000     0.      0.00 
  -1   8   3     28.89    2.21  0. 1.0000     0.      0.00 
   0   8   3    114.43    5.59  0. 1.0000     0.      0.00 
   1   8   3      3.02    2.44  0. 1.0000     0.      0.00 
   2   8   3      0.00    3.13  0. 1.0000     0.      0.00 
   4   8   3      0.00   25.39  0. 1.0000     0.      0.00 
   5   8   3    169.82    7.05  0. 1.0000     0.      0.00 
   6   8   3     35.75    5.34  0. 1.0000     0.      0.00 
   7   8   3     27.95    6.85  0. 1.0000     0.      0.00 
   8   8   3      7.49    6.28  0. 1.0000     0.      0.00 
   9   8   3     11.89    5.73  0. 1.0000     0.      0.00 
 -13   9   3     12.49   13.01  0. 1.0000     0.      0.00 
 -12   9   3     20.59   20.75  0. 1.0000     0.      0.00 
 -11   9   3      4.50   30.87  0. 1.0000     0.      0.00 
 -10   9   3     17.08   13.71  0. 1.0000     0.      0.00 
  -9   9   3     19.82    5.80  0. 1.0000     0.      0.00 
  -8   9   3      0.00    4.03  0. 1.0000     0.      0.00 
  -7   9   3    320.55    4.69  0. 1.0000     0.      0.00 
  -6   9   3      0.00    3.63  0. 1.0000     0.      0.00 
  -5   9   3   1090.67   10.57  0. 1.0000     0.      0.00 
  -4   9   3    167.60    3.75  0. 1.0000     0.      0.00 
  -3   9   3    174.58    3.56  0. 1.0000     0.      0.00 
  -2   9   3    128.24    3.44  0. 1.0000     0.      0.00 
  -1   9   3    656.61    9.14  0. 1.0000     0.      0.00 
   0   9   3     17.93   21.80  0. 1.0000     0.      0.00 
   1   9   3    852.68   33.03  0. 1.0000     0.      0.00 
   2   9   3     99.68    4.80  0. 1.0000     0.      0.00 
   3   9   3      2.43    3.35  0. 1.0000     0.      0.00 
   4   9   3    168.13    4.43  0. 1.0000     0.      0.00 
   5   9   3    140.46    4.93  0. 1.0000     0.      0.00 
   6   9   3    255.71    8.11  0. 1.0000     0.      0.00 
   7   9   3     23.77    6.43  0. 1.0000     0.      0.00 
   8   9   3     15.77    7.86  0. 1.0000     0.      0.00 
 -11  10   3    183.81   20.16  0. 1.0000     0.      0.00 
 -10  10   3     63.43    5.22  0. 1.0000     0.      0.00 
  -9  10   3    474.92    6.05  0. 1.0000     0.      0.00 
  -8  10   3    144.01    3.14  0. 1.0000     0.      0.00 
  -7  10   3      7.55    2.71  0. 1.0000     0.      0.00 
  -6  10   3      0.00    3.46  0. 1.0000     0.      0.00 
  -5  10   3    243.52    6.48  0. 1.0000     0.      0.00 
  -4  10   3      6.83    4.90  0. 1.0000     0.      0.00 
  -3  10   3     23.89   24.62  0. 1.0000     0.      0.00 
  -2  10   3    249.10   21.21  0. 1.0000     0.      0.00 
  -1  10   3      0.00    5.22  0. 1.0000     0.      0.00 
   0  10   3    323.12    5.67  0. 1.0000     0.      0.00 
   1  10   3     49.49    3.38  0. 1.0000     0.      0.00 
   2  10   3    230.64    4.52  0. 1.0000     0.      0.00 
   3  10   3     70.03    2.85  0. 1.0000     0.      0.00 
   4  10   3    118.86    5.60  0. 1.0000     0.      0.00 
   5  10   3     68.21    6.95  0. 1.0000     0.      0.00 
   6  10   3     16.84   10.34  0. 1.0000     0.      0.00 
   7  10   3     19.37   20.31  0. 1.0000     0.      0.00 
 -11  11   3      7.39    5.72  0. 1.0000     0.      0.00 
 -10  11   3     78.04    5.39  0. 1.0000     0.      0.00 
  -9  11   3     25.26    8.49  0. 1.0000     0.      0.00 
  -8  11   3     33.72    7.35  0. 1.0000     0.      0.00 
  -7  11   3      0.00   11.88  0. 1.0000     0.      0.00 
  -6  11   3     63.51   47.99  0. 1.0000     0.      0.00 
  -5  11   3    357.76   42.49  0. 1.0000     0.      0.00 
  -4  11   3     15.16    9.39  0. 1.0000     0.      0.00 
  -3  11   3    125.55    5.58  0. 1.0000     0.      0.00 
  -2  11   3    637.06    8.63  0. 1.0000     0.      0.00 
  -1  11   3     87.68    3.87  0. 1.0000     0.      0.00 
   0  11   3    448.82    6.00  0. 1.0000     0.      0.00 
   1  11   3    304.01    5.51  0. 1.0000     0.      0.00 
   2  11   3      0.00    6.54  0. 1.0000     0.      0.00 
   3  11   3     10.34    6.77  0. 1.0000     0.      0.00 
   4  11   3     59.72   15.59  0. 1.0000     0.      0.00 
   5  11   3     34.17   33.57  0. 1.0000     0.      0.00 
   6  11   3      4.26   49.94  0. 1.0000     0.      0.00 
 -11  12   3     55.09   23.58  0. 1.0000     0.      0.00 
 -10  12   3      0.00   34.90  0. 1.0000     0.      0.00 
  -7  12   3     22.98   14.48  0. 1.0000     0.      0.00 
  -6  12   3     71.64    9.40  0. 1.0000     0.      0.00 
  -5  12   3    137.38    8.68  0. 1.0000     0.      0.00 
  -4  12   3     12.52    6.69  0. 1.0000     0.      0.00 
  -3  12   3     54.13    4.00  0. 1.0000     0.      0.00 
  -2  12   3     21.86    6.32  0. 1.0000     0.      0.00 
  -1  12   3      3.89    7.50  0. 1.0000     0.      0.00 
   0  12   3     29.93    8.00  0. 1.0000     0.      0.00 
   1  12   3     63.24   13.02  0. 1.0000     0.      0.00 
   3  12   3      0.00   39.23  0. 1.0000     0.      0.00 
   4  12   3    136.84   15.74  0. 1.0000     0.      0.00 
   5  12   3     45.86   12.29  0. 1.0000     0.      0.00 
 -10  13   3     41.72   16.74  0. 1.0000     0.      0.00 
  -9  13   3     19.75   14.65  0. 1.0000     0.      0.00 
  -8  13   3      0.00   10.25  0. 1.0000     0.      0.00 
  -7  13   3    124.92    6.08  0. 1.0000     0.      0.00 
  -6  13   3    205.56    5.25  0. 1.0000     0.      0.00 
  -5  13   3    189.49    5.59  0. 1.0000     0.      0.00 
  -4  13   3     25.65    5.92  0. 1.0000     0.      0.00 
  -3  13   3     24.28    8.86  0. 1.0000     0.      0.00 
  -2  13   3    231.03   23.15  0. 1.0000     0.      0.00 
   0  13   3    161.15   42.49  0. 1.0000     0.      0.00 
   1  13   3     30.76   17.81  0. 1.0000     0.      0.00 
   2  13   3      6.10    9.95  0. 1.0000     0.      0.00 
   3  13   3     39.53    8.23  0. 1.0000     0.      0.00 
  -8  14   3     17.00    6.00  0. 1.0000     0.      0.00 
  -7  14   3     37.17    9.63  0. 1.0000     0.      0.00 
  -6  14   3      9.42   13.20  0. 1.0000     0.      0.00 
  -5  14   3     31.14   39.81  0. 1.0000     0.      0.00 
  -3  14   3     32.13   31.47  0. 1.0000     0.      0.00 
  -2  14   3      0.00   15.04  0. 1.0000     0.      0.00 
  -1  14   3      0.00    9.85  0. 1.0000     0.      0.00 
   0  14   3      5.26    7.52  0. 1.0000     0.      0.00 
   1  14   3     17.08    6.19  0. 1.0000     0.      0.00 
  -4  15   3      8.65   17.46  0. 1.0000     0.      0.00 
  -3  15   3     21.68   12.91  0. 1.0000     0.      0.00 
   2 -15   4     37.95    6.16  0. 1.0000     0.      0.00 
   3 -15   4     63.05    8.79  0. 1.0000     0.      0.00 
   4 -15   4      0.00   11.40  0. 1.0000     0.      0.00 
   5 -15   4     72.71   18.47  0. 1.0000     0.      0.00 
  -2 -14   4      9.56   23.71  0. 1.0000     0.      0.00 
  -1 -14   4     97.26    5.93  0. 1.0000     0.      0.00 
   0 -14   4     16.28    6.54  0. 1.0000     0.      0.00 
   1 -14   4    206.01    9.80  0. 1.0000     0.      0.00 
   2 -14   4     14.03   14.93  0. 1.0000     0.      0.00 
   3 -14   4     16.58   43.63  0. 1.0000     0.      0.00 
   5 -14   4     10.95   20.38  0. 1.0000     0.      0.00 
   6 -14   4     10.84   11.07  0. 1.0000     0.      0.00 
   7 -14   4    100.15    8.35  0. 1.0000     0.      0.00 
   8 -14   4     12.96    6.22  0. 1.0000     0.      0.00 
  -4 -13   4     10.56   19.97  0. 1.0000     0.      0.00 
  -3 -13   4     33.79    7.52  0. 1.0000     0.      0.00 
  -2 -13   4      5.91    8.61  0. 1.0000     0.      0.00 
  -1 -13   4    221.75   13.40  0. 1.0000     0.      0.00 
   0 -13   4     15.33   28.09  0. 1.0000     0.      0.00 
   2 -13   4     93.04   13.82  0. 1.0000     0.      0.00 
   3 -13   4     10.71    6.82  0. 1.0000     0.      0.00 
   4 -13   4     30.88    6.27  0. 1.0000     0.      0.00 
   5 -13   4    103.95    5.93  0. 1.0000     0.      0.00 
   6 -13   4     15.36    3.71  0. 1.0000     0.      0.00 
   7 -13   4    169.33    6.22  0. 1.0000     0.      0.00 
   8 -13   4    109.79    8.48  0. 1.0000     0.      0.00 
   9 -13   4     12.16   17.90  0. 1.0000     0.      0.00 
  10 -13   4     18.28   27.56  0. 1.0000     0.      0.00 
  -5 -12   4     88.36   11.06  0. 1.0000     0.      0.00 
  -4 -12   4     28.66   14.82  0. 1.0000     0.      0.00 
  -1 -12   4      2.20   12.79  0. 1.0000     0.      0.00 
   0 -12   4      0.00    5.82  0. 1.0000     0.      0.00 
   1 -12   4      0.00    5.79  0. 1.0000     0.      0.00 
   2 -12   4    229.93    5.60  0. 1.0000     0.      0.00 
   3 -12   4     49.29    3.53  0. 1.0000     0.      0.00 
   4 -12   4    266.57    7.25  0. 1.0000     0.      0.00 
   5 -12   4     31.41    7.50  0. 1.0000     0.      0.00 
   6 -12   4     55.81    8.56  0. 1.0000     0.      0.00 
   7 -12   4      0.00   13.30  0. 1.0000     0.      0.00 
   8 -12   4     22.73   34.26  0. 1.0000     0.      0.00 
  10 -12   4     48.29   14.59  0. 1.0000     0.      0.00 
  11 -12   4      6.81   14.57  0. 1.0000     0.      0.00 
  -6 -11   4    162.09   54.60  0. 1.0000     0.      0.00 
  -5 -11   4     40.14   39.96  0. 1.0000     0.      0.00 
  -4 -11   4     41.88   15.93  0. 1.0000     0.      0.00 
  -3 -11   4     15.36    6.83  0. 1.0000     0.      0.00 
  -2 -11   4    229.32    6.62  0. 1.0000     0.      0.00 
  -1 -11   4     36.89    3.57  0. 1.0000     0.      0.00 
   0 -11   4     43.12    2.67  0. 1.0000     0.      0.00 
   1 -11   4      0.00    3.99  0. 1.0000     0.      0.00 
   2 -11   4    676.66    8.83  0. 1.0000     0.      0.00 
   3 -11   4      0.00    4.37  0. 1.0000     0.      0.00 
   4 -11   4    183.91    7.10  0. 1.0000     0.      0.00 
   5 -11   4    120.84   21.00  0. 1.0000     0.      0.00 
   7 -11   4     51.01   11.24  0. 1.0000     0.      0.00 
   8 -11   4    250.38    9.10  0. 1.0000     0.      0.00 
   9 -11   4     23.11    7.65  0. 1.0000     0.      0.00 
  10 -11   4    121.82    5.09  0. 1.0000     0.      0.00 
  11 -11   4     55.96    4.74  0. 1.0000     0.      0.00 
  12 -11   4      6.70    9.09  0. 1.0000     0.      0.00 
  -8 -10   4     58.27   65.56  0. 1.0000     0.      0.00 
  -7 -10   4     31.88   21.39  0. 1.0000     0.      0.00 
  -6 -10   4    279.36    9.59  0. 1.0000     0.      0.00 
  -5 -10   4     22.84    6.35  0. 1.0000     0.      0.00 
  -4 -10   4     10.03    5.46  0. 1.0000     0.      0.00 
  -3 -10   4     61.56    3.05  0. 1.0000     0.      0.00 
  -2 -10   4    430.61    6.06  0. 1.0000     0.      0.00 
  -1 -10   4     49.70    3.93  0. 1.0000     0.      0.00 
   0 -10   4    341.63    5.69  0. 1.0000     0.      0.00 
   1 -10   4    219.73    5.68  0. 1.0000     0.      0.00 
   2 -10   4     52.50   18.39  0. 1.0000     0.      0.00 
   3 -10   4      6.79   21.03  0. 1.0000     0.      0.00 
   4 -10   4     13.12    4.54  0. 1.0000     0.      0.00 
   5 -10   4    292.70    5.78  0. 1.0000     0.      0.00 
   6 -10   4     11.62    3.78  0. 1.0000     0.      0.00 
   7 -10   4    150.05    3.65  0. 1.0000     0.      0.00 
   8 -10   4    294.21    4.75  0. 1.0000     0.      0.00 
   9 -10   4      0.00    3.75  0. 1.0000     0.      0.00 
  10 -10   4     16.22    7.30  0. 1.0000     0.      0.00 
  11 -10   4     95.06   12.60  0. 1.0000     0.      0.00 
  12 -10   4     66.86   19.29  0. 1.0000     0.      0.00 
  -9  -9   4     34.19   26.34  0. 1.0000     0.      0.00 
  -8  -9   4      9.60    8.14  0. 1.0000     0.      0.00 
  -7  -9   4    127.41    7.22  0. 1.0000     0.      0.00 
  -6  -9   4     24.55    3.88  0. 1.0000     0.      0.00 
  -5  -9   4     47.45    4.56  0. 1.0000     0.      0.00 
  -4  -9   4     43.31    6.45  0. 1.0000     0.      0.00 
  -3  -9   4    351.50    5.68  0. 1.0000     0.      0.00 
  -2  -9   4    610.71   10.00  0. 1.0000     0.      0.00 
  -1  -9   4    155.87   13.32  0. 1.0000     0.      0.00 
   0  -9   4     23.92   11.58  0. 1.0000     0.      0.00 
   1  -9   4    527.64    7.68  0. 1.0000     0.      0.00 
   2  -9   4    171.54    4.10  0. 1.0000     0.      0.00 
   3  -9   4     48.04    3.18  0. 1.0000     0.      0.00 
   4  -9   4    157.88    3.02  0. 1.0000     0.      0.00 
   5  -9   4    606.88    6.66  0. 1.0000     0.      0.00 
   6  -9   4    130.18    3.09  0. 1.0000     0.      0.00 
   7  -9   4    218.38    4.18  0. 1.0000     0.      0.00 
   8  -9   4    111.49    4.49  0. 1.0000     0.      0.00 
   9  -9   4      0.00    6.49  0. 1.0000     0.      0.00 
  10  -9   4     22.26   15.30  0. 1.0000     0.      0.00 
  11  -9   4    152.70   36.72  0. 1.0000     0.      0.00 
  12  -9   4     17.82   21.57  0. 1.0000     0.      0.00 
  13  -9   4     25.65   13.60  0. 1.0000     0.      0.00 
  -9  -8   4     23.12    5.39  0. 1.0000     0.      0.00 
  -8  -8   4     40.63    7.15  0. 1.0000     0.      0.00 
  -7  -8   4    169.57    7.81  0. 1.0000     0.      0.00 
  -6  -8   4     37.08    5.68  0. 1.0000     0.      0.00 
  -5  -8   4    225.33    6.54  0. 1.0000     0.      0.00 
  -4  -8   4      0.00   17.28  0. 1.0000     0.      0.00 
  -3  -8   4    855.41   31.68  0. 1.0000     0.      0.00 
  -2  -8   4      1.38    3.09  0. 1.0000     0.      0.00 
  -1  -8   4     13.52    2.94  0. 1.0000     0.      0.00 
   0  -8   4    144.18    3.25  0. 1.0000     0.      0.00 
   1  -8   4    625.73    8.29  0. 1.0000     0.      0.00 
   2  -8   4     70.62    1.80  0. 1.0000     0.      0.00 
   3  -8   4    439.28    5.36  0. 1.0000     0.      0.00 
   4  -8   4     22.18    2.05  0. 1.0000     0.      0.00 
   5  -8   4    541.59    6.25  0. 1.0000     0.      0.00 
   6  -8   4     13.57    2.52  0. 1.0000     0.      0.00 
   7  -8   4      0.00   10.51  0. 1.0000     0.      0.00 
   8  -8   4    370.64   44.62  0. 1.0000     0.      0.00 
   9  -8   4      3.36    5.17  0. 1.0000     0.      0.00 
  10  -8   4      3.42    5.03  0. 1.0000     0.      0.00 
  11  -8   4    456.38   11.71  0. 1.0000     0.      0.00 
  12  -8   4      0.39    5.15  0. 1.0000     0.      0.00 
  13  -8   4      5.28    4.61  0. 1.0000     0.      0.00 
 -10  -7   4     26.03    8.05  0. 1.0000     0.      0.00 
  -9  -7   4      5.51    7.73  0. 1.0000     0.      0.00 
  -8  -7   4     17.20   12.67  0. 1.0000     0.      0.00 
  -7  -7   4    519.98   35.67  0. 1.0000     0.      0.00 
  -6  -7   4     58.42   19.18  0. 1.0000     0.      0.00 
  -5  -7   4    202.01    5.47  0. 1.0000     0.      0.00 
  -4  -7   4    424.59    5.64  0. 1.0000     0.      0.00 
  -3  -7   4    154.92    3.65  0. 1.0000     0.      0.00 
  -2  -7   4    207.75    3.71  0. 1.0000     0.      0.00 
  -1  -7   4      7.89    2.74  0. 1.0000     0.      0.00 
   0  -7   4    213.46    4.14  0. 1.0000     0.      0.00 
   1  -7   4   2457.13   23.70  0. 1.0000     0.      0.00 
   2  -7   4     34.48    1.94  0. 1.0000     0.      0.00 
   3  -7   4     13.65    3.19  0. 1.0000     0.      0.00 
   4  -7   4    534.68    7.70  0. 1.0000     0.      0.00 
   5  -7   4     56.40    3.28  0. 1.0000     0.      0.00 
   6  -7   4    166.92    3.18  0. 1.0000     0.      0.00 
   7  -7   4    218.60    3.83  0. 1.0000     0.      0.00 
   8  -7   4    180.02    3.61  0. 1.0000     0.      0.00 
   9  -7   4     74.64    2.36  0. 1.0000     0.      0.00 
  10  -7   4    117.19    2.90  0. 1.0000     0.      0.00 
  11  -7   4      6.31    4.52  0. 1.0000     0.      0.00 
  12  -7   4      0.00    7.37  0. 1.0000     0.      0.00 
  13  -7   4     16.18   12.09  0. 1.0000     0.      0.00 
 -11  -6   4     32.83   12.85  0. 1.0000     0.      0.00 
 -10  -6   4     17.50   26.28  0. 1.0000     0.      0.00 
  -9  -6   4     16.43   35.64  0. 1.0000     0.      0.00 
  -8  -6   4    329.50   13.44  0. 1.0000     0.      0.00 
  -7  -6   4    125.86    4.39  0. 1.0000     0.      0.00 
  -6  -6   4     47.84    3.23  0. 1.0000     0.      0.00 
  -5  -6   4     19.06    2.34  0. 1.0000     0.      0.00 
  -4  -6   4    581.26    6.14  0. 1.0000     0.      0.00 
  -3  -6   4    219.98    3.21  0. 1.0000     0.      0.00 
  -2  -6   4    411.45    5.59  0. 1.0000     0.      0.00 
  -1  -6   4     95.01    2.59  0. 1.0000     0.      0.00 
   0  -6   4    831.43    8.23  0. 1.0000     0.      0.00 
   1  -6   4    504.79    6.24  0. 1.0000     0.      0.00 
   2  -6   4    142.52    2.36  0. 1.0000     0.      0.00 
   3  -6   4    562.06    5.95  0. 1.0000     0.      0.00 
   4  -6   4    836.33   10.72  0. 1.0000     0.      0.00 
   5  -6   4     49.82    1.87  0. 1.0000     0.      0.00 
   6  -6   4    376.47    4.37  0. 1.0000     0.      0.00 
   7  -6   4    621.74    5.54  0. 1.0000     0.      0.00 
   8  -6   4    185.68    5.91  0. 1.0000     0.      0.00 
   9  -6   4     47.60    2.68  0. 1.0000     0.      0.00 
  10  -6   4     15.07    7.11  0. 1.0000     0.      0.00 
  11  -6   4    243.47   13.35  0. 1.0000     0.      0.00 
  12  -6   4     22.41   23.70  0. 1.0000     0.      0.00 
  14  -6   4     59.11   34.78  0. 1.0000     0.      0.00 
 -11  -5   4     38.48   16.02  0. 1.0000     0.      0.00 
 -10  -5   4     61.79    8.56  0. 1.0000     0.      0.00 
  -9  -5   4     12.65    5.49  0. 1.0000     0.      0.00 
  -8  -5   4    509.09    7.00  0. 1.0000     0.      0.00 
  -7  -5   4     78.64    2.50  0. 1.0000     0.      0.00 
  -6  -5   4     20.83    3.08  0. 1.0000     0.      0.00 
  -5  -5   4     45.04    2.32  0. 1.0000     0.      0.00 
  -4  -5   4   1559.08   16.17  0. 1.0000     0.      0.00 
  -3  -5   4    583.07    9.06  0. 1.0000     0.      0.00 
  -2  -5   4    740.38    6.96  0. 1.0000     0.      0.00 
  -1  -5   4    753.16    7.72  0. 1.0000     0.      0.00 
   0  -5   4    206.33    2.80  0. 1.0000     0.      0.00 
   1  -5   4    259.59    2.91  0. 1.0000     0.      0.00 
   2  -5   4    293.71    4.22  0. 1.0000     0.      0.00 
   3  -5   4     51.78    1.29  0. 1.0000     0.      0.00 
   4  -5   4   1572.29   14.88  0. 1.0000     0.      0.00 
   5  -5   4      9.32    1.49  0. 1.0000     0.      0.00 
   6  -5   4      8.62    3.38  0. 1.0000     0.      0.00 
   7  -5   4    115.74    2.51  0. 1.0000     0.      0.00 
   8  -5   4     73.12    3.73  0. 1.0000     0.      0.00 
   9  -5   4    199.26   15.83  0. 1.0000     0.      0.00 
  10  -5   4     17.38   21.31  0. 1.0000     0.      0.00 
  11  -5   4     58.01    8.71  0. 1.0000     0.      0.00 
  12  -5   4     69.66    7.93  0. 1.0000     0.      0.00 
  13  -5   4      6.25    6.71  0. 1.0000     0.      0.00 
  14  -5   4     43.05    6.53  0. 1.0000     0.      0.00 
 -12  -4   4    218.52    9.77  0. 1.0000     0.      0.00 
 -11  -4   4     36.16    5.43  0. 1.0000     0.      0.00 
 -10  -4   4      7.59    3.51  0. 1.0000     0.      0.00 
  -9  -4   4     91.14    3.66  0. 1.0000     0.      0.00 
  -8  -4   4    364.82    6.06  0. 1.0000     0.      0.00 
  -7  -4   4     41.86    3.68  0. 1.0000     0.      0.00 
  -6  -4   4    286.48    5.72  0. 1.0000     0.      0.00 
  -5  -4   4    334.24    5.35  0. 1.0000     0.      0.00 
  -4  -4   4   1118.56   11.16  0. 1.0000     0.      0.00 
  -3  -4   4     18.95    3.13  0. 1.0000     0.      0.00 
  -2  -4   4     15.53    1.25  0. 1.0000     0.      0.00 
  -1  -4   4   1826.09   22.60  0. 1.0000     0.      0.00 
   0  -4   4     70.57    1.30  0. 1.0000     0.      0.00 
   1  -4   4    374.63    3.41  0. 1.0000     0.      0.00 
   2  -4   4    583.68    7.31  0. 1.0000     0.      0.00 
   3  -4   4     95.32    7.95  0. 1.0000     0.      0.00 
   4  -4   4   1637.27   19.80  0. 1.0000     0.      0.00 
   5  -4   4    280.35    3.40  0. 1.0000     0.      0.00 
   6  -4   4   1006.16   10.28  0. 1.0000     0.      0.00 
   7  -4   4    535.34    9.94  0. 1.0000     0.      0.00 
   8  -4   4     18.38    2.35  0. 1.0000     0.      0.00 
   9  -4   4    124.09    3.57  0. 1.0000     0.      0.00 
  10  -4   4    446.27    7.25  0. 1.0000     0.      0.00 
  11  -4   4      0.00    3.49  0. 1.0000     0.      0.00 
  12  -4   4     49.70    3.94  0. 1.0000     0.      0.00 
  13  -4   4     60.15    6.08  0. 1.0000     0.      0.00 
  14  -4   4     14.43   10.02  0. 1.0000     0.      0.00 
 -12  -3   4     32.63    5.67  0. 1.0000     0.      0.00 
 -11  -3   4    165.66    6.75  0. 1.0000     0.      0.00 
 -10  -3   4      0.00    6.11  0. 1.0000     0.      0.00 
  -9  -3   4    108.52    6.73  0. 1.0000     0.      0.00 
  -8  -3   4    484.86   19.56  0. 1.0000     0.      0.00 
  -7  -3   4    203.66   16.40  0. 1.0000     0.      0.00 
  -6  -3   4    170.99    3.35  0. 1.0000     0.      0.00 
  -5  -3   4   1236.03   15.07  0. 1.0000     0.      0.00 
  -4  -3   4    148.87    2.24  0. 1.0000     0.      0.00 
  -3  -3   4    132.24    2.25  0. 1.0000     0.      0.00 
  -2  -3   4     24.28    1.57  0. 1.0000     0.      0.00 
  -1  -3   4   2237.30   20.82  0. 1.0000     0.      0.00 
   0  -3   4   2703.20   23.36  0. 1.0000     0.      0.00 
   1  -3   4    421.38    3.96  0. 1.0000     0.      0.00 
   2  -3   4    321.67    3.06  0. 1.0000     0.      0.00 
   3  -3   4    586.26    4.84  0. 1.0000     0.      0.00 
   4  -3   4      1.66    0.46  0. 1.0000     0.      0.00 
   5  -3   4    284.98    3.44  0. 1.0000     0.      0.00 
   6  -3   4    261.55    4.10  0. 1.0000     0.      0.00 
   7  -3   4    487.12    6.74  0. 1.0000     0.      0.00 
   8  -3   4     26.82    1.71  0. 1.0000     0.      0.00 
   9  -3   4    150.17    3.42  0. 1.0000     0.      0.00 
  10  -3   4     33.09    3.08  0. 1.0000     0.      0.00 
  11  -3   4      5.98    4.34  0. 1.0000     0.      0.00 
  12  -3   4    216.36   11.24  0. 1.0000     0.      0.00 
  13  -3   4     20.09   14.47  0. 1.0000     0.      0.00 
  14  -3   4     24.24   29.43  0. 1.0000     0.      0.00 
 -13  -2   4     35.37    9.90  0. 1.0000     0.      0.00 
 -12  -2   4     21.54   10.26  0. 1.0000     0.      0.00 
 -11  -2   4    104.88   22.14  0. 1.0000     0.      0.00 
 -10  -2   4      9.04   19.81  0. 1.0000     0.      0.00 
  -9  -2   4    540.98   10.76  0. 1.0000     0.      0.00 
  -8  -2   4     15.28    2.84  0. 1.0000     0.      0.00 
  -7  -2   4    131.91    4.25  0. 1.0000     0.      0.00 
  -6  -2   4    171.10    3.35  0. 1.0000     0.      0.00 
  -5  -2   4   1134.04   11.69  0. 1.0000     0.      0.00 
  -4  -2   4    199.20    2.79  0. 1.0000     0.      0.00 
  -3  -2   4    372.95    5.59  0. 1.0000     0.      0.00 
  -2  -2   4     35.19    1.08  0. 1.0000     0.      0.00 
  -1  -2   4   3348.99   28.11  0. 1.0000     0.      0.00 
   0  -2   4    606.33    5.02  0. 1.0000     0.      0.00 
   1  -2   4     42.35    0.62  0. 1.0000     0.      0.00 
   2  -2   4   5468.30   44.53  0. 1.0000     0.      0.00 
   3  -2   4    108.22    1.40  0. 1.0000     0.      0.00 
   4  -2   4    138.63    1.91  0. 1.0000     0.      0.00 
   5  -2   4   1177.00   12.53  0. 1.0000     0.      0.00 
   6  -2   4    134.93    1.66  0. 1.0000     0.      0.00 
   7  -2   4    486.35    7.55  0. 1.0000     0.      0.00 
   8  -2   4    336.00    5.14  0. 1.0000     0.      0.00 
   9  -2   4    195.18    3.74  0. 1.0000     0.      0.00 
  10  -2   4    211.47    8.78  0. 1.0000     0.      0.00 
  11  -2   4     95.90   20.73  0. 1.0000     0.      0.00 
  12  -2   4      0.00   40.93  0. 1.0000     0.      0.00 
  13  -2   4      0.00   17.01  0. 1.0000     0.      0.00 
  14  -2   4      0.00   12.03  0. 1.0000     0.      0.00 
 -13  -1   4     35.70   29.10  0. 1.0000     0.      0.00 
 -12  -1   4      5.22   13.16  0. 1.0000     0.      0.00 
 -11  -1   4    311.77   11.34  0. 1.0000     0.      0.00 
 -10  -1   4     45.69    4.03  0. 1.0000     0.      0.00 
  -9  -1   4    247.98    4.40  0. 1.0000     0.      0.00 
  -8  -1   4    342.18    4.82  0. 1.0000     0.      0.00 
  -7  -1   4     18.57    2.76  0. 1.0000     0.      0.00 
  -6  -1   4    254.34    3.38  0. 1.0000     0.      0.00 
  -5  -1   4   2571.74   27.02  0. 1.0000     0.      0.00 
  -4  -1   4      8.67    0.92  0. 1.0000     0.      0.00 
  -3  -1   4    141.34    1.55  0. 1.0000     0.      0.00 
  -2  -1   4   1998.24   15.83  0. 1.0000     0.      0.00 
  -1  -1   4     30.81    0.49  0. 1.0000     0.      0.00 
   0  -1   4    436.98    3.81  0. 1.0000     0.      0.00 
   1  -1   4     68.67    0.86  0. 1.0000     0.      0.00 
   2  -1   4   2054.23   23.93  0. 1.0000     0.      0.00 
   3  -1   4    557.88    5.11  0. 1.0000     0.      0.00 
   4  -1   4     79.83    1.38  0. 1.0000     0.      0.00 
   5  -1   4     31.04    1.48  0. 1.0000     0.      0.00 
   6  -1   4     65.87    2.28  0. 1.0000     0.      0.00 
   7  -1   4     31.32    1.79  0. 1.0000     0.      0.00 
   8  -1   4    435.67   11.73  0. 1.0000     0.      0.00 
   9  -1   4    522.93   23.32  0. 1.0000     0.      0.00 
  10  -1   4    108.09    5.00  0. 1.0000     0.      0.00 
  11  -1   4    218.02    6.77  0. 1.0000     0.      0.00 
  12  -1   4     13.10    5.69  0. 1.0000     0.      0.00 
  13  -1   4      0.00    6.81  0. 1.0000     0.      0.00 
  14  -1   4      2.19   10.87  0. 1.0000     0.      0.00 
 -13   0   4     40.31    8.05  0. 1.0000     0.      0.00 
 -12   0   4     60.76    5.52  0. 1.0000     0.      0.00 
 -11   0   4     12.48    3.14  0. 1.0000     0.      0.00 
 -10   0   4    290.06    5.29  0. 1.0000     0.      0.00 
  -9   0   4     20.29    3.01  0. 1.0000     0.      0.00 
  -8   0   4    296.24    4.80  0. 1.0000     0.      0.00 
  -7   0   4      6.05    2.97  0. 1.0000     0.      0.00 
  -6   0   4    695.46    8.15  0. 1.0000     0.      0.00 
  -5   0   4   1434.19   15.96  0. 1.0000     0.      0.00 
  -4   0   4    210.17    2.11  0. 1.0000     0.      0.00 
  -3   0   4    683.62    7.70  0. 1.0000     0.      0.00 
  -2   0   4   1846.32   18.98  0. 1.0000     0.      0.00 
  -1   0   4    185.32    2.45  0. 1.0000     0.      0.00 
   0   0   4    439.15    4.14  0. 1.0000     0.      0.00 
   1   0   4    309.24    3.00  0. 1.0000     0.      0.00 
   2   0   4   1249.81   15.55  0. 1.0000     0.      0.00 
   3   0   4    889.22    8.38  0. 1.0000     0.      0.00 
   4   0   4      9.79    0.50  0. 1.0000     0.      0.00 
   5   0   4   2717.34   24.93  0. 1.0000     0.      0.00 
   6   0   4    614.42    6.27  0. 1.0000     0.      0.00 
   7   0   4     15.81    1.56  0. 1.0000     0.      0.00 
   8   0   4    185.04    3.47  0. 1.0000     0.      0.00 
   9   0   4     34.67    6.97  0. 1.0000     0.      0.00 
  10   0   4     26.45    2.95  0. 1.0000     0.      0.00 
  11   0   4     50.32    4.18  0. 1.0000     0.      0.00 
  12   0   4     12.69    5.51  0. 1.0000     0.      0.00 
  13   0   4      0.00    9.05  0. 1.0000     0.      0.00 
 -14   1   4    120.01    6.16  0. 1.0000     0.      0.00 
 -13   1   4     16.60    5.46  0. 1.0000     0.      0.00 
 -12   1   4    106.54    5.91  0. 1.0000     0.      0.00 
 -11   1   4     43.35    4.86  0. 1.0000     0.      0.00 
 -10   1   4    220.21    5.98  0. 1.0000     0.      0.00 
  -9   1   4    197.90   12.84  0. 1.0000     0.      0.00 
  -8   1   4    612.60   16.14  0. 1.0000     0.      0.00 
  -7   1   4     61.31    1.90  0. 1.0000     0.      0.00 
  -6   1   4    395.83    4.32  0. 1.0000     0.      0.00 
  -5   1   4    269.81    3.02  0. 1.0000     0.      0.00 
  -4   1   4    146.86    1.92  0. 1.0000     0.      0.00 
  -3   1   4    308.25    3.74  0. 1.0000     0.      0.00 
  -2   1   4   2678.08   26.76  0. 1.0000     0.      0.00 
  -1   1   4      3.99    0.42  0. 1.0000     0.      0.00 
   0   1   4    296.55    2.72  0. 1.0000     0.      0.00 
   1   1   4    103.39    1.09  0. 1.0000     0.      0.00 
   2   1   4   1232.76   10.26  0. 1.0000     0.      0.00 
   3   1   4    147.88    1.66  0. 1.0000     0.      0.00 
   4   1   4     17.07    0.72  0. 1.0000     0.      0.00 
   5   1   4   1805.27   21.45  0. 1.0000     0.      0.00 
   6   1   4    467.74    5.39  0. 1.0000     0.      0.00 
   7   1   4     38.80    2.60  0. 1.0000     0.      0.00 
   8   1   4    210.93    3.80  0. 1.0000     0.      0.00 
   9   1   4     13.71    5.30  0. 1.0000     0.      0.00 
  10   1   4      0.00    4.71  0. 1.0000     0.      0.00 
  11   1   4    380.61   11.66  0. 1.0000     0.      0.00 
  12   1   4     17.63   14.50  0. 1.0000     0.      0.00 
  13   1   4      1.59   24.06  0. 1.0000     0.      0.00 
 -14   2   4     44.48   10.16  0. 1.0000     0.      0.00 
 -13   2   4     32.79   11.97  0. 1.0000     0.      0.00 
 -11   2   4     33.44   23.12  0. 1.0000     0.      0.00 
 -10   2   4    262.60    8.15  0. 1.0000     0.      0.00 
  -9   2   4      0.00    3.08  0. 1.0000     0.      0.00 
  -8   2   4    303.55    4.94  0. 1.0000     0.      0.00 
  -7   2   4    913.54   10.42  0. 1.0000     0.      0.00 
  -6   2   4     13.56    1.04  0. 1.0000     0.      0.00 
  -5   2   4    696.77    9.35  0. 1.0000     0.      0.00 
  -4   2   4    144.04    2.12  0. 1.0000     0.      0.00 
  -3   2   4     74.46    1.25  0. 1.0000     0.      0.00 
  -2   2   4   5080.41   41.33  0. 1.0000     0.      0.00 
  -1   2   4     36.43    0.59  0. 1.0000     0.      0.00 
   0   2   4   1925.22   15.85  0. 1.0000     0.      0.00 
   1   2   4   3675.81   30.23  0. 1.0000     0.      0.00 
   2   2   4     13.79    0.75  0. 1.0000     0.      0.00 
   3   2   4    409.76    4.47  0. 1.0000     0.      0.00 
   4   2   4    458.38    7.31  0. 1.0000     0.      0.00 
   5   2   4     75.02    2.50  0. 1.0000     0.      0.00 
   6   2   4     83.49    3.51  0. 1.0000     0.      0.00 
   7   2   4    126.58    2.77  0. 1.0000     0.      0.00 
   8   2   4    272.80    6.59  0. 1.0000     0.      0.00 
   9   2   4    150.41    6.32  0. 1.0000     0.      0.00 
  10   2   4      4.47   20.45  0. 1.0000     0.      0.00 
  11   2   4     19.67   20.16  0. 1.0000     0.      0.00 
  12   2   4      2.74   16.08  0. 1.0000     0.      0.00 
  13   2   4     25.20   12.17  0. 1.0000     0.      0.00 
 -14   3   4      5.26   23.90  0. 1.0000     0.      0.00 
 -13   3   4     22.25   14.33  0. 1.0000     0.      0.00 
 -12   3   4    191.32   10.14  0. 1.0000     0.      0.00 
 -11   3   4    180.44    5.12  0. 1.0000     0.      0.00 
 -10   3   4      4.67    2.91  0. 1.0000     0.      0.00 
  -9   3   4    287.92    4.11  0. 1.0000     0.      0.00 
  -8   3   4      2.20    1.66  0. 1.0000     0.      0.00 
  -7   3   4    601.33    8.22  0. 1.0000     0.      0.00 
  -6   3   4    524.12    5.89  0. 1.0000     0.      0.00 
  -5   3   4    272.06    3.59  0. 1.0000     0.      0.00 
  -4   3   4     60.35    1.02  0. 1.0000     0.      0.00 
  -3   3   4    693.87    5.67  0. 1.0000     0.      0.00 
  -2   3   4     90.23    1.23  0. 1.0000     0.      0.00 
  -1   3   4    624.71    5.12  0. 1.0000     0.      0.00 
   0   3   4   2162.75   27.84  0. 1.0000     0.      0.00 
   1   3   4   1028.40    9.65  0. 1.0000     0.      0.00 
   2   3   4    132.43    1.52  0. 1.0000     0.      0.00 
   3   3   4    167.30    2.09  0. 1.0000     0.      0.00 
   4   3   4    178.42    6.46  0. 1.0000     0.      0.00 
   5   3   4    182.56    4.59  0. 1.0000     0.      0.00 
   6   3   4    207.06    6.89  0. 1.0000     0.      0.00 
   7   3   4     43.64    7.53  0. 1.0000     0.      0.00 
   8   3   4    590.13   30.16  0. 1.0000     0.      0.00 
   9   3   4    286.90    8.82  0. 1.0000     0.      0.00 
  10   3   4    151.87    6.75  0. 1.0000     0.      0.00 
  11   3   4      0.00    5.63  0. 1.0000     0.      0.00 
  12   3   4      7.57    5.66  0. 1.0000     0.      0.00 
 -14   4   4     21.09    8.90  0. 1.0000     0.      0.00 
 -13   4   4    124.68    6.25  0. 1.0000     0.      0.00 
 -12   4   4      0.61    3.53  0. 1.0000     0.      0.00 
 -11   4   4    250.79    4.74  0. 1.0000     0.      0.00 
 -10   4   4    240.48    5.93  0. 1.0000     0.      0.00 
  -9   4   4    113.63    3.41  0. 1.0000     0.      0.00 
  -8   4   4     12.37    2.33  0. 1.0000     0.      0.00 
  -7   4   4    610.43   11.70  0. 1.0000     0.      0.00 
  -6   4   4    573.91    8.03  0. 1.0000     0.      0.00 
  -5   4   4    402.37    4.18  0. 1.0000     0.      0.00 
  -4   4   4   2118.92   26.48  0. 1.0000     0.      0.00 
  -3   4   4     52.32    4.36  0. 1.0000     0.      0.00 
  -2   4   4    367.23    3.70  0. 1.0000     0.      0.00 
  -1   4   4    639.38    5.38  0. 1.0000     0.      0.00 
   0   4   4     48.77    6.48  0. 1.0000     0.      0.00 
   1   4   4   1161.53   17.18  0. 1.0000     0.      0.00 
   2   4   4     11.79    2.40  0. 1.0000     0.      0.00 
   3   4   4    304.93    3.43  0. 1.0000     0.      0.00 
   4   4   4   1036.38   11.70  0. 1.0000     0.      0.00 
   5   4   4    599.14    8.78  0. 1.0000     0.      0.00 
   6   4   4     50.91    2.69  0. 1.0000     0.      0.00 
   7   4   4      7.80    3.03  0. 1.0000     0.      0.00 
   8   4   4      0.00    3.36  0. 1.0000     0.      0.00 
   9   4   4    119.13    3.76  0. 1.0000     0.      0.00 
  10   4   4      8.47    3.93  0. 1.0000     0.      0.00 
  11   4   4     11.41    5.71  0. 1.0000     0.      0.00 
  12   4   4     19.12    9.93  0. 1.0000     0.      0.00 
 -14   5   4     96.78    6.64  0. 1.0000     0.      0.00 
 -13   5   4     22.29    6.47  0. 1.0000     0.      0.00 
 -12   5   4     27.01    7.29  0. 1.0000     0.      0.00 
 -11   5   4    157.39    9.19  0. 1.0000     0.      0.00 
 -10   5   4     13.10   15.96  0. 1.0000     0.      0.00 
  -9   5   4    175.68   12.99  0. 1.0000     0.      0.00 
  -8   5   4    194.78    4.20  0. 1.0000     0.      0.00 
  -7   5   4     81.32    4.45  0. 1.0000     0.      0.00 
  -6   5   4    114.65    2.20  0. 1.0000     0.      0.00 
  -5   5   4     32.12    1.91  0. 1.0000     0.      0.00 
  -4   5   4   1059.08    9.84  0. 1.0000     0.      0.00 
  -3   5   4    157.51    9.30  0. 1.0000     0.      0.00 
  -2   5   4    215.55    2.60  0. 1.0000     0.      0.00 
  -1   5   4     88.02    2.46  0. 1.0000     0.      0.00 
   0   5   4     13.21    1.34  0. 1.0000     0.      0.00 
   1   5   4    763.63    7.93  0. 1.0000     0.      0.00 
   2   5   4    555.35    6.90  0. 1.0000     0.      0.00 
   3   5   4   1459.26   14.57  0. 1.0000     0.      0.00 
   4   5   4    990.22    9.92  0. 1.0000     0.      0.00 
   5   5   4    435.10    5.67  0. 1.0000     0.      0.00 
   6   5   4      2.85    2.29  0. 1.0000     0.      0.00 
   7   5   4     85.07    2.66  0. 1.0000     0.      0.00 
   8   5   4     27.41    6.73  0. 1.0000     0.      0.00 
   9   5   4     69.99    5.99  0. 1.0000     0.      0.00 
  10   5   4     98.16   10.75  0. 1.0000     0.      0.00 
  11   5   4      9.27   19.02  0. 1.0000     0.      0.00 
 -14   6   4    155.14   26.90  0. 1.0000     0.      0.00 
 -13   6   4      0.00   45.45  0. 1.0000     0.      0.00 
 -12   6   4     35.00   21.45  0. 1.0000     0.      0.00 
 -11   6   4    134.85    8.68  0. 1.0000     0.      0.00 
 -10   6   4    113.39    4.67  0. 1.0000     0.      0.00 
  -9   6   4     21.27    3.29  0. 1.0000     0.      0.00 
  -8   6   4    378.85    4.46  0. 1.0000     0.      0.00 
  -7   6   4    442.36    6.67  0. 1.0000     0.      0.00 
  -6   6   4    417.53    4.95  0. 1.0000     0.      0.00 
  -5   6   4     89.41    2.05  0. 1.0000     0.      0.00 
  -4   6   4    434.24    4.56  0. 1.0000     0.      0.00 
  -3   6   4    840.34   16.19  0. 1.0000     0.      0.00 
  -2   6   4     69.59    1.34  0. 1.0000     0.      0.00 
  -1   6   4   1951.28   17.92  0. 1.0000     0.      0.00 
   0   6   4    635.67    9.66  0. 1.0000     0.      0.00 
   1   6   4      0.00    1.72  0. 1.0000     0.      0.00 
   2   6   4    368.37    4.53  0. 1.0000     0.      0.00 
   3   6   4     73.33    2.06  0. 1.0000     0.      0.00 
   4   6   4     82.36    2.60  0. 1.0000     0.      0.00 
   5   6   4     16.59    2.08  0. 1.0000     0.      0.00 
   6   6   4      5.56    2.98  0. 1.0000     0.      0.00 
   7   6   4     41.72    4.29  0. 1.0000     0.      0.00 
   8   6   4    135.67   17.35  0. 1.0000     0.      0.00 
   9   6   4     96.71   49.99  0. 1.0000     0.      0.00 
  10   6   4      0.00   47.19  0. 1.0000     0.      0.00 
  11   6   4      4.34   16.31  0. 1.0000     0.      0.00 
 -13   7   4     23.81   11.06  0. 1.0000     0.      0.00 
 -12   7   4     38.40    7.88  0. 1.0000     0.      0.00 
 -11   7   4     18.73    3.77  0. 1.0000     0.      0.00 
 -10   7   4    218.22    2.94  0. 1.0000     0.      0.00 
  -9   7   4     54.97    2.24  0. 1.0000     0.      0.00 
  -8   7   4    220.79    4.95  0. 1.0000     0.      0.00 
  -7   7   4     42.94    3.92  0. 1.0000     0.      0.00 
  -6   7   4    115.25    3.19  0. 1.0000     0.      0.00 
  -5   7   4     10.07    2.97  0. 1.0000     0.      0.00 
  -4   7   4    364.39    7.25  0. 1.0000     0.      0.00 
  -3   7   4      0.00    4.20  0. 1.0000     0.      0.00 
  -2   7   4      0.00    6.93  0. 1.0000     0.      0.00 
  -1   7   4   1996.47   25.60  0. 1.0000     0.      0.00 
   0   7   4    134.93    2.91  0. 1.0000     0.      0.00 
   1   7   4     14.91    1.40  0. 1.0000     0.      0.00 
   2   7   4    175.73    3.67  0. 1.0000     0.      0.00 
   3   7   4    120.71    7.24  0. 1.0000     0.      0.00 
   4   7   4     76.97    6.33  0. 1.0000     0.      0.00 
   5   7   4    284.08    6.84  0. 1.0000     0.      0.00 
   6   7   4    183.86   23.27  0. 1.0000     0.      0.00 
   7   7   4    145.73   43.49  0. 1.0000     0.      0.00 
   8   7   4    270.05   14.40  0. 1.0000     0.      0.00 
   9   7   4     29.96    8.74  0. 1.0000     0.      0.00 
  10   7   4     13.87    8.23  0. 1.0000     0.      0.00 
 -13   8   4      3.61    5.03  0. 1.0000     0.      0.00 
 -12   8   4      0.00    5.16  0. 1.0000     0.      0.00 
 -11   8   4    358.22    7.21  0. 1.0000     0.      0.00 
 -10   8   4     15.83    3.74  0. 1.0000     0.      0.00 
  -9   8   4      8.41    4.80  0. 1.0000     0.      0.00 
  -8   8   4    373.32   37.94  0. 1.0000     0.      0.00 
  -7   8   4     14.20   19.22  0. 1.0000     0.      0.00 
  -6   8   4      0.00    3.44  0. 1.0000     0.      0.00 
  -5   8   4    756.40    9.18  0. 1.0000     0.      0.00 
  -4   8   4      4.38    2.00  0. 1.0000     0.      0.00 
  -3   8   4    351.52    4.63  0. 1.0000     0.      0.00 
  -2   8   4     92.96    2.07  0. 1.0000     0.      0.00 
  -1   8   4      0.00    4.53  0. 1.0000     0.      0.00 
   0   8   4    201.44    3.53  0. 1.0000     0.      0.00 
   1   8   4     39.45    2.71  0. 1.0000     0.      0.00 
   2   8   4    140.54    4.12  0. 1.0000     0.      0.00 
   3   8   4    136.77   52.63  0. 1.0000     0.      0.00 
   4   8   4     86.55   28.78  0. 1.0000     0.      0.00 
   5   8   4    108.11    6.86  0. 1.0000     0.      0.00 
   6   8   4    108.63    5.89  0. 1.0000     0.      0.00 
   7   8   4     28.29    6.51  0. 1.0000     0.      0.00 
   8   8   4    135.83    7.09  0. 1.0000     0.      0.00 
   9   8   4      7.83    5.75  0. 1.0000     0.      0.00 
 -13   9   4     38.39   13.15  0. 1.0000     0.      0.00 
 -12   9   4     27.15   30.82  0. 1.0000     0.      0.00 
 -11   9   4     42.87   46.21  0. 1.0000     0.      0.00 
 -10   9   4      7.15   10.80  0. 1.0000     0.      0.00 
  -9   9   4      6.80    6.00  0. 1.0000     0.      0.00 
  -8   9   4    100.69    3.81  0. 1.0000     0.      0.00 
  -7   9   4    332.73    7.37  0. 1.0000     0.      0.00 
  -6   9   4    190.31    4.10  0. 1.0000     0.      0.00 
  -5   9   4    240.46    5.36  0. 1.0000     0.      0.00 
  -4   9   4     36.47    2.51  0. 1.0000     0.      0.00 
  -3   9   4    124.62    4.95  0. 1.0000     0.      0.00 
  -2   9   4    169.18    3.98  0. 1.0000     0.      0.00 
  -1   9   4     34.22    8.13  0. 1.0000     0.      0.00 
   0   9   4      0.00   18.78  0. 1.0000     0.      0.00 
   1   9   4     38.77   13.53  0. 1.0000     0.      0.00 
   2   9   4   1143.97   18.19  0. 1.0000     0.      0.00 
   3   9   4    391.64    5.90  0. 1.0000     0.      0.00 
   4   9   4    162.03    4.37  0. 1.0000     0.      0.00 
   5   9   4      4.93    4.53  0. 1.0000     0.      0.00 
   6   9   4      7.62    4.62  0. 1.0000     0.      0.00 
   7   9   4      6.16    5.86  0. 1.0000     0.      0.00 
   8   9   4     70.69    8.39  0. 1.0000     0.      0.00 
 -11  10   4    146.64   12.27  0. 1.0000     0.      0.00 
 -10  10   4     37.44    6.67  0. 1.0000     0.      0.00 
  -9  10   4      0.00    3.82  0. 1.0000     0.      0.00 
  -8  10   4    237.45    3.99  0. 1.0000     0.      0.00 
  -7  10   4    265.63    4.20  0. 1.0000     0.      0.00 
  -6  10   4      4.11    3.45  0. 1.0000     0.      0.00 
  -5  10   4     78.54    4.21  0. 1.0000     0.      0.00 
  -4  10   4      0.00    5.03  0. 1.0000     0.      0.00 
  -3  10   4      1.51   23.10  0. 1.0000     0.      0.00 
  -2  10   4    225.12   22.03  0. 1.0000     0.      0.00 
  -1  10   4    186.13    5.77  0. 1.0000     0.      0.00 
   0  10   4    104.63    4.39  0. 1.0000     0.      0.00 
   1  10   4      6.18    3.21  0. 1.0000     0.      0.00 
   2  10   4     91.71    3.86  0. 1.0000     0.      0.00 
   3  10   4     39.08    2.81  0. 1.0000     0.      0.00 
   4  10   4     13.69    5.21  0. 1.0000     0.      0.00 
   5  10   4      5.09    6.09  0. 1.0000     0.      0.00 
   6  10   4     19.29   10.24  0. 1.0000     0.      0.00 
   7  10   4      6.50   19.69  0. 1.0000     0.      0.00 
 -11  11   4     94.16    5.98  0. 1.0000     0.      0.00 
 -10  11   4    108.12    5.34  0. 1.0000     0.      0.00 
  -9  11   4     16.90    6.71  0. 1.0000     0.      0.00 
  -8  11   4    110.44    9.12  0. 1.0000     0.      0.00 
  -7  11   4     17.59   13.43  0. 1.0000     0.      0.00 
  -6  11   4      0.00   24.87  0. 1.0000     0.      0.00 
  -5  11   4    195.16   35.47  0. 1.0000     0.      0.00 
  -4  11   4     63.88    7.98  0. 1.0000     0.      0.00 
  -3  11   4    279.46    6.09  0. 1.0000     0.      0.00 
  -2  11   4    452.94    6.87  0. 1.0000     0.      0.00 
  -1  11   4     37.70    3.31  0. 1.0000     0.      0.00 
   0  11   4     26.54    2.54  0. 1.0000     0.      0.00 
   1  11   4     27.43    3.77  0. 1.0000     0.      0.00 
   2  11   4     26.94    5.31  0. 1.0000     0.      0.00 
   3  11   4      6.26    7.24  0. 1.0000     0.      0.00 
   4  11   4     63.19   15.52  0. 1.0000     0.      0.00 
   5  11   4     47.16   51.02  0. 1.0000     0.      0.00 
 -11  12   4     10.61   17.38  0. 1.0000     0.      0.00 
 -10  12   4      0.00   48.10  0. 1.0000     0.      0.00 
  -8  12   4    102.57   54.64  0. 1.0000     0.      0.00 
  -7  12   4     19.71   14.84  0. 1.0000     0.      0.00 
  -6  12   4     37.34    8.76  0. 1.0000     0.      0.00 
  -5  12   4      0.00    5.90  0. 1.0000     0.      0.00 
  -4  12   4    263.93    9.38  0. 1.0000     0.      0.00 
  -3  12   4     34.96    3.94  0. 1.0000     0.      0.00 
  -2  12   4      1.23    6.78  0. 1.0000     0.      0.00 
  -1  12   4     30.39    6.19  0. 1.0000     0.      0.00 
   0  12   4      5.87    7.57  0. 1.0000     0.      0.00 
   1  12   4      4.60   13.70  0. 1.0000     0.      0.00 
   4  12   4     24.12   15.57  0. 1.0000     0.      0.00 
   5  12   4     51.96   12.52  0. 1.0000     0.      0.00 
 -10  13   4     14.60    6.39  0. 1.0000     0.      0.00 
  -9  13   4      0.00   13.58  0. 1.0000     0.      0.00 
  -8  13   4     95.50    8.87  0. 1.0000     0.      0.00 
  -7  13   4    279.02    7.15  0. 1.0000     0.      0.00 
  -6  13   4      3.27    3.61  0. 1.0000     0.      0.00 
  -5  13   4     38.01    4.50  0. 1.0000     0.      0.00 
  -4  13   4     90.67    6.07  0. 1.0000     0.      0.00 
  -3  13   4     73.97    9.73  0. 1.0000     0.      0.00 
  -2  13   4      4.17   21.05  0. 1.0000     0.      0.00 
   0  13   4      0.00   47.46  0. 1.0000     0.      0.00 
   1  13   4    178.01   15.37  0. 1.0000     0.      0.00 
   2  13   4    139.34   11.37  0. 1.0000     0.      0.00 
   3  13   4      4.86    8.70  0. 1.0000     0.      0.00 
  -8  14   4     18.89    6.05  0. 1.0000     0.      0.00 
  -7  14   4     13.80   10.49  0. 1.0000     0.      0.00 
  -6  14   4      9.57   13.41  0. 1.0000     0.      0.00 
  -5  14   4      0.00   29.66  0. 1.0000     0.      0.00 
  -3  14   4      0.00   30.66  0. 1.0000     0.      0.00 
  -2  14   4     19.79   14.85  0. 1.0000     0.      0.00 
  -1  14   4    138.83   11.72  0. 1.0000     0.      0.00 
   0  14   4     65.35    8.39  0. 1.0000     0.      0.00 
   1  14   4     13.41    6.14  0. 1.0000     0.      0.00 
   2 -15   5      5.70   13.04  0. 1.0000     0.      0.00 
   3 -15   5     58.09    8.29  0. 1.0000     0.      0.00 
   4 -15   5     34.51   10.53  0. 1.0000     0.      0.00 
   5 -15   5      0.00   18.36  0. 1.0000     0.      0.00 
  -1 -14   5     46.17    5.80  0. 1.0000     0.      0.00 
   0 -14   5     27.36    6.86  0. 1.0000     0.      0.00 
   1 -14   5     11.93    8.19  0. 1.0000     0.      0.00 
   2 -14   5    663.70   20.65  0. 1.0000     0.      0.00 
   3 -14   5      3.06   44.58  0. 1.0000     0.      0.00 
   5 -14   5      0.00   25.08  0. 1.0000     0.      0.00 
   6 -14   5    307.21   12.20  0. 1.0000     0.      0.00 
   7 -14   5     33.53    8.35  0. 1.0000     0.      0.00 
   8 -14   5     30.87    5.97  0. 1.0000     0.      0.00 
  -3 -13   5      7.30    7.37  0. 1.0000     0.      0.00 
  -2 -13   5    357.48   10.81  0. 1.0000     0.      0.00 
  -1 -13   5      5.63   11.35  0. 1.0000     0.      0.00 
   0 -13   5      0.00   29.83  0. 1.0000     0.      0.00 
   2 -13   5    587.01   22.92  0. 1.0000     0.      0.00 
   3 -13   5    106.40    7.86  0. 1.0000     0.      0.00 
   4 -13   5      0.00    5.45  0. 1.0000     0.      0.00 
   5 -13   5     23.61    4.50  0. 1.0000     0.      0.00 
   6 -13   5    194.11    5.66  0. 1.0000     0.      0.00 
   7 -13   5    269.84    7.18  0. 1.0000     0.      0.00 
   8 -13   5      9.60    8.29  0. 1.0000     0.      0.00 
   9 -13   5    204.51   14.15  0. 1.0000     0.      0.00 
  10 -13   5     38.53   26.32  0. 1.0000     0.      0.00 
  -5 -12   5      0.00   10.07  0. 1.0000     0.      0.00 
  -4 -12   5      5.04   14.03  0. 1.0000     0.      0.00 
  -1 -12   5    222.37   12.52  0. 1.0000     0.      0.00 
   0 -12   5      4.45    6.02  0. 1.0000     0.      0.00 
   1 -12   5      4.29    5.99  0. 1.0000     0.      0.00 
   2 -12   5    131.93    5.78  0. 1.0000     0.      0.00 
   3 -12   5    261.87    5.25  0. 1.0000     0.      0.00 
   4 -12   5      3.90    4.63  0. 1.0000     0.      0.00 
   5 -12   5    437.40   12.13  0. 1.0000     0.      0.00 
   6 -12   5      0.00    8.30  0. 1.0000     0.      0.00 
   7 -12   5     16.26   12.78  0. 1.0000     0.      0.00 
   8 -12   5      7.85   41.43  0. 1.0000     0.      0.00 
   9 -12   5    631.42   85.01  0. 1.0000     0.      0.00 
  10 -12   5     17.40   25.90  0. 1.0000     0.      0.00 
  11 -12   5     12.66   14.26  0. 1.0000     0.      0.00 
  -6 -11   5     98.14   53.17  0. 1.0000     0.      0.00 
  -5 -11   5     99.62   40.78  0. 1.0000     0.      0.00 
  -4 -11   5     56.35   16.40  0. 1.0000     0.      0.00 
  -3 -11   5    337.65    9.36  0. 1.0000     0.      0.00 
  -2 -11   5      5.01    5.56  0. 1.0000     0.      0.00 
  -1 -11   5    193.79    4.22  0. 1.0000     0.      0.00 
   0 -11   5     74.86    3.43  0. 1.0000     0.      0.00 
   1 -11   5    164.65    3.87  0. 1.0000     0.      0.00 
   2 -11   5      4.71    3.59  0. 1.0000     0.      0.00 
   3 -11   5    139.84    5.18  0. 1.0000     0.      0.00 
   4 -11   5    181.28    7.05  0. 1.0000     0.      0.00 
   5 -11   5   1124.00   52.27  0. 1.0000     0.      0.00 
   6 -11   5      0.00   19.22  0. 1.0000     0.      0.00 
   7 -11   5    143.07   10.54  0. 1.0000     0.      0.00 
   8 -11   5      5.78    8.40  0. 1.0000     0.      0.00 
   9 -11   5    692.77   16.52  0. 1.0000     0.      0.00 
  10 -11   5    183.18    5.79  0. 1.0000     0.      0.00 
  11 -11   5     31.66    4.90  0. 1.0000     0.      0.00 
  12 -11   5     20.87    8.83  0. 1.0000     0.      0.00 
  -7 -10   5    198.98   26.20  0. 1.0000     0.      0.00 
  -6 -10   5    177.04    9.72  0. 1.0000     0.      0.00 
  -5 -10   5     87.55    6.62  0. 1.0000     0.      0.00 
  -4 -10   5     20.37    5.91  0. 1.0000     0.      0.00 
  -3 -10   5    190.14    4.06  0. 1.0000     0.      0.00 
  -2 -10   5     91.81    3.23  0. 1.0000     0.      0.00 
  -1 -10   5     47.14    3.77  0. 1.0000     0.      0.00 
   0 -10   5    116.10    4.11  0. 1.0000     0.      0.00 
   1 -10   5   1085.58   15.09  0. 1.0000     0.      0.00 
   2 -10   5    185.72   16.13  0. 1.0000     0.      0.00 
   3 -10   5    201.18   27.19  0. 1.0000     0.      0.00 
   4 -10   5    277.87    7.27  0. 1.0000     0.      0.00 
   5 -10   5    699.28    9.87  0. 1.0000     0.      0.00 
   6 -10   5    186.04    4.67  0. 1.0000     0.      0.00 
   7 -10   5      8.24    3.07  0. 1.0000     0.      0.00 
   8 -10   5     68.24    3.31  0. 1.0000     0.      0.00 
   9 -10   5    100.01    5.09  0. 1.0000     0.      0.00 
  10 -10   5    230.15    8.84  0. 1.0000     0.      0.00 
  11 -10   5      0.00   10.65  0. 1.0000     0.      0.00 
  12 -10   5    240.69   20.78  0. 1.0000     0.      0.00 
  -8  -9   5     19.62    8.19  0. 1.0000     0.      0.00 
  -7  -9   5     65.45    6.69  0. 1.0000     0.      0.00 
  -6  -9   5    651.29   11.03  0. 1.0000     0.      0.00 
  -5  -9   5     13.70    4.74  0. 1.0000     0.      0.00 
  -4  -9   5     16.39    4.12  0. 1.0000     0.      0.00 
  -3  -9   5    413.43    6.25  0. 1.0000     0.      0.00 
  -2  -9   5    229.23    5.76  0. 1.0000     0.      0.00 
  -1  -9   5    103.20   10.63  0. 1.0000     0.      0.00 
   0  -9   5   2001.83   81.31  0. 1.0000     0.      0.00 
   1  -9   5    229.05    6.39  0. 1.0000     0.      0.00 
   2  -9   5     41.30    3.28  0. 1.0000     0.      0.00 
   3  -9   5      0.00    2.73  0. 1.0000     0.      0.00 
   4  -9   5    210.41    3.82  0. 1.0000     0.      0.00 
   5  -9   5     40.08    4.44  0. 1.0000     0.      0.00 
   6  -9   5    771.82    7.93  0. 1.0000     0.      0.00 
   7  -9   5      0.00    3.30  0. 1.0000     0.      0.00 
   8  -9   5    646.81    9.46  0. 1.0000     0.      0.00 
   9  -9   5     38.13    7.70  0. 1.0000     0.      0.00 
  10  -9   5      4.14   16.65  0. 1.0000     0.      0.00 
  11  -9   5     62.33   58.96  0. 1.0000     0.      0.00 
  12  -9   5    599.58   27.25  0. 1.0000     0.      0.00 
  13  -9   5     10.06   12.76  0. 1.0000     0.      0.00 
  -9  -8   5     12.58    5.02  0. 1.0000     0.      0.00 
  -8  -8   5     22.53    6.80  0. 1.0000     0.      0.00 
  -7  -8   5     55.10    6.88  0. 1.0000     0.      0.00 
  -6  -8   5    161.20    6.49  0. 1.0000     0.      0.00 
  -5  -8   5      6.13    5.45  0. 1.0000     0.      0.00 
  -4  -8   5    965.96   56.47  0. 1.0000     0.      0.00 
  -3  -8   5     36.15   12.59  0. 1.0000     0.      0.00 
  -2  -8   5     99.60    3.40  0. 1.0000     0.      0.00 
  -1  -8   5     20.33    2.41  0. 1.0000     0.      0.00 
   0  -8   5   1143.37   12.71  0. 1.0000     0.      0.00 
   1  -8   5    121.47    2.59  0. 1.0000     0.      0.00 
   2  -8   5    120.48    2.25  0. 1.0000     0.      0.00 
   3  -8   5     26.57    3.47  0. 1.0000     0.      0.00 
   4  -8   5   1199.81   13.99  0. 1.0000     0.      0.00 
   5  -8   5    352.89    9.27  0. 1.0000     0.      0.00 
   6  -8   5     27.15    2.77  0. 1.0000     0.      0.00 
   7  -8   5    376.46   16.90  0. 1.0000     0.      0.00 
   8  -8   5    832.73   52.07  0. 1.0000     0.      0.00 
   9  -8   5      5.60    6.07  0. 1.0000     0.      0.00 
  10  -8   5     15.64    5.46  0. 1.0000     0.      0.00 
  11  -8   5      0.00    8.90  0. 1.0000     0.      0.00 
  12  -8   5    388.36    7.80  0. 1.0000     0.      0.00 
  13  -8   5    112.74    5.36  0. 1.0000     0.      0.00 
 -10  -7   5    144.46    8.61  0. 1.0000     0.      0.00 
  -9  -7   5     15.07    8.17  0. 1.0000     0.      0.00 
  -8  -7   5    143.04   13.12  0. 1.0000     0.      0.00 
  -7  -7   5      0.00   20.31  0. 1.0000     0.      0.00 
  -6  -7   5     20.90   23.07  0. 1.0000     0.      0.00 
  -5  -7   5    229.65    5.96  0. 1.0000     0.      0.00 
  -4  -7   5   1528.06   16.73  0. 1.0000     0.      0.00 
  -3  -7   5    947.64   10.30  0. 1.0000     0.      0.00 
  -2  -7   5     14.19    2.36  0. 1.0000     0.      0.00 
  -1  -7   5    432.15    7.04  0. 1.0000     0.      0.00 
   0  -7   5    594.86    7.51  0. 1.0000     0.      0.00 
   1  -7   5   1431.41   18.76  0. 1.0000     0.      0.00 
   2  -7   5    136.12    4.62  0. 1.0000     0.      0.00 
   3  -7   5   1367.20   17.01  0. 1.0000     0.      0.00 
   4  -7   5    686.76   10.29  0. 1.0000     0.      0.00 
   5  -7   5     27.80    2.71  0. 1.0000     0.      0.00 
   6  -7   5    109.55    2.95  0. 1.0000     0.      0.00 
   7  -7   5    603.27    7.05  0. 1.0000     0.      0.00 
   8  -7   5    520.74    6.86  0. 1.0000     0.      0.00 
   9  -7   5    205.14    3.41  0. 1.0000     0.      0.00 
  10  -7   5     10.22    2.79  0. 1.0000     0.      0.00 
  11  -7   5    198.97    6.17  0. 1.0000     0.      0.00 
  12  -7   5      6.29    6.58  0. 1.0000     0.      0.00 
  13  -7   5     33.63   12.54  0. 1.0000     0.      0.00 
 -11  -6   5     26.42   13.82  0. 1.0000     0.      0.00 
 -10  -6   5     22.36   26.79  0. 1.0000     0.      0.00 
  -9  -6   5      2.25   56.06  0. 1.0000     0.      0.00 
  -8  -6   5    348.12   14.48  0. 1.0000     0.      0.00 
  -7  -6   5    968.13   12.19  0. 1.0000     0.      0.00 
  -6  -6   5      2.44    2.98  0. 1.0000     0.      0.00 
  -5  -6   5     10.74    2.19  0. 1.0000     0.      0.00 
  -4  -6   5    271.18    3.99  0. 1.0000     0.      0.00 
  -3  -6   5   1565.48   16.46  0. 1.0000     0.      0.00 
  -2  -6   5     10.12    1.64  0. 1.0000     0.      0.00 
  -1  -6   5    372.86    5.88  0. 1.0000     0.      0.00 
   0  -6   5    323.68    4.77  0. 1.0000     0.      0.00 
   1  -6   5    553.30    6.19  0. 1.0000     0.      0.00 
   2  -6   5    172.73    2.89  0. 1.0000     0.      0.00 
   3  -6   5   3372.56   32.89  0. 1.0000     0.      0.00 
   4  -6   5      4.47    2.12  0. 1.0000     0.      0.00 
   5  -6   5     52.10    1.82  0. 1.0000     0.      0.00 
   6  -6   5    119.52    2.91  0. 1.0000     0.      0.00 
   7  -6   5   1346.61   11.87  0. 1.0000     0.      0.00 
   8  -6   5     58.74    2.51  0. 1.0000     0.      0.00 
   9  -6   5    368.05    5.16  0. 1.0000     0.      0.00 
  10  -6   5     27.50    4.24  0. 1.0000     0.      0.00 
  11  -6   5    247.41   13.99  0. 1.0000     0.      0.00 
  12  -6   5     15.36   19.40  0. 1.0000     0.      0.00 
  13  -6   5     21.46   36.89  0. 1.0000     0.      0.00 
  14  -6   5      0.00   25.54  0. 1.0000     0.      0.00 
 -11  -5   5     99.36   17.39  0. 1.0000     0.      0.00 
 -10  -5   5     12.72    8.19  0. 1.0000     0.      0.00 
  -9  -5   5    215.03    6.64  0. 1.0000     0.      0.00 
  -8  -5   5     12.85    3.28  0. 1.0000     0.      0.00 
  -7  -5   5   1349.49   15.52  0. 1.0000     0.      0.00 
  -6  -5   5     66.41    3.62  0. 1.0000     0.      0.00 
  -5  -5   5     20.86    2.10  0. 1.0000     0.      0.00 
  -4  -5   5      6.14    2.49  0. 1.0000     0.      0.00 
  -3  -5   5    661.18    7.21  0. 1.0000     0.      0.00 
  -2  -5   5    345.57    4.10  0. 1.0000     0.      0.00 
  -1  -5   5   4785.10   46.18  0. 1.0000     0.      0.00 
   0  -5   5    406.01    4.19  0. 1.0000     0.      0.00 
   1  -5   5    346.70    4.01  0. 1.0000     0.      0.00 
   2  -5   5     29.35    1.45  0. 1.0000     0.      0.00 
   3  -5   5   3004.34   26.18  0. 1.0000     0.      0.00 
   4  -5   5    858.86    8.99  0. 1.0000     0.      0.00 
   5  -5   5    359.51    3.59  0. 1.0000     0.      0.00 
   6  -5   5     61.52    1.94  0. 1.0000     0.      0.00 
   7  -5   5    863.67    8.86  0. 1.0000     0.      0.00 
   8  -5   5    296.33    4.76  0. 1.0000     0.      0.00 
   9  -5   5     14.93    9.86  0. 1.0000     0.      0.00 
  10  -5   5    269.18   29.23  0. 1.0000     0.      0.00 
  11  -5   5    333.33   12.62  0. 1.0000     0.      0.00 
  12  -5   5      3.15    8.48  0. 1.0000     0.      0.00 
  13  -5   5     14.66    6.82  0. 1.0000     0.      0.00 
  14  -5   5     44.45    6.81  0. 1.0000     0.      0.00 
 -12  -4   5     61.25    8.70  0. 1.0000     0.      0.00 
 -11  -4   5    378.46    8.16  0. 1.0000     0.      0.00 
 -10  -4   5      8.05    3.30  0. 1.0000     0.      0.00 
  -9  -4   5     20.01    3.38  0. 1.0000     0.      0.00 
  -8  -4   5    224.15    4.60  0. 1.0000     0.      0.00 
  -7  -4   5    142.52    3.56  0. 1.0000     0.      0.00 
  -6  -4   5     10.04    3.11  0. 1.0000     0.      0.00 
  -5  -4   5   1067.48   14.65  0. 1.0000     0.      0.00 
  -4  -4   5    914.26   10.48  0. 1.0000     0.      0.00 
  -3  -4   5     12.79    1.77  0. 1.0000     0.      0.00 
  -2  -4   5    625.82    6.02  0. 1.0000     0.      0.00 
  -1  -4   5   2661.88   25.91  0. 1.0000     0.      0.00 
   0  -4   5   2124.05   18.73  0. 1.0000     0.      0.00 
   1  -4   5     26.23    2.08  0. 1.0000     0.      0.00 
   2  -4   5     61.90    1.75  0. 1.0000     0.      0.00 
   3  -4   5   1394.61   12.87  0. 1.0000     0.      0.00 
   4  -4   5   3035.32   31.94  0. 1.0000     0.      0.00 
   5  -4   5     28.58    1.64  0. 1.0000     0.      0.00 
   6  -4   5   1881.94   19.13  0. 1.0000     0.      0.00 
   7  -4   5     10.55    2.60  0. 1.0000     0.      0.00 
   8  -4   5     67.64    2.62  0. 1.0000     0.      0.00 
   9  -4   5     17.43    2.95  0. 1.0000     0.      0.00 
  10  -4   5    936.86   14.69  0. 1.0000     0.      0.00 
  11  -4   5     86.23    3.77  0. 1.0000     0.      0.00 
  12  -4   5     41.15    4.27  0. 1.0000     0.      0.00 
  13  -4   5      4.23    5.87  0. 1.0000     0.      0.00 
  14  -4   5     70.88   10.88  0. 1.0000     0.      0.00 
 -12  -3   5    715.39   11.48  0. 1.0000     0.      0.00 
 -11  -3   5     50.67    5.82  0. 1.0000     0.      0.00 
 -10  -3   5     83.95    6.91  0. 1.0000     0.      0.00 
  -9  -3   5    133.31    7.00  0. 1.0000     0.      0.00 
  -8  -3   5    240.55   12.94  0. 1.0000     0.      0.00 
  -7  -3   5      0.35    8.02  0. 1.0000     0.      0.00 
  -6  -3   5   1485.31   16.94  0. 1.0000     0.      0.00 
  -5  -3   5    849.32    8.94  0. 1.0000     0.      0.00 
  -4  -3   5   1763.12   16.31  0. 1.0000     0.      0.00 
  -3  -3   5     42.79    1.44  0. 1.0000     0.      0.00 
  -2  -3   5     34.50    1.09  0. 1.0000     0.      0.00 
  -1  -3   5    139.40    4.21  0. 1.0000     0.      0.00 
   0  -3   5   3818.44   37.49  0. 1.0000     0.      0.00 
   1  -3   5      3.94    0.74  0. 1.0000     0.      0.00 
   2  -3   5   3139.70   26.41  0. 1.0000     0.      0.00 
   3  -3   5     75.48    1.11  0. 1.0000     0.      0.00 
   4  -3   5     21.57    0.66  0. 1.0000     0.      0.00 
   5  -3   5     89.04    1.74  0. 1.0000     0.      0.00 
   6  -3   5   3239.22   35.35  0. 1.0000     0.      0.00 
   7  -3   5      4.45    1.57  0. 1.0000     0.      0.00 
   8  -3   5     11.33    1.90  0. 1.0000     0.      0.00 
   9  -3   5     32.16    1.94  0. 1.0000     0.      0.00 
  10  -3   5    777.68   14.76  0. 1.0000     0.      0.00 
  11  -3   5    186.94    5.64  0. 1.0000     0.      0.00 
  12  -3   5     23.23    9.55  0. 1.0000     0.      0.00 
  13  -3   5     36.31   13.58  0. 1.0000     0.      0.00 
  14  -3   5     43.69   29.07  0. 1.0000     0.      0.00 
 -13  -2   5     24.54   10.09  0. 1.0000     0.      0.00 
 -12  -2   5    183.09   10.95  0. 1.0000     0.      0.00 
 -11  -2   5      0.00   23.34  0. 1.0000     0.      0.00 
 -10  -2   5    160.22   22.39  0. 1.0000     0.      0.00 
  -9  -2   5     17.48    5.18  0. 1.0000     0.      0.00 
  -8  -2   5    786.66   10.47  0. 1.0000     0.      0.00 
  -7  -2   5      6.42    2.32  0. 1.0000     0.      0.00 
  -6  -2   5    653.58    7.96  0. 1.0000     0.      0.00 
  -5  -2   5    533.12    5.26  0. 1.0000     0.      0.00 
  -4  -2   5   1106.01   10.99  0. 1.0000     0.      0.00 
  -3  -2   5    173.87    3.03  0. 1.0000     0.      0.00 
  -2  -2   5    468.36    4.45  0. 1.0000     0.      0.00 
  -1  -2   5   1088.57    9.79  0. 1.0000     0.      0.00 
   0  -2   5   1299.32   10.98  0. 1.0000     0.      0.00 
   1  -2   5   1123.38    9.71  0. 1.0000     0.      0.00 
   2  -2   5   4869.43   41.24  0. 1.0000     0.      0.00 
   3  -2   5    480.99    5.43  0. 1.0000     0.      0.00 
   4  -2   5    611.94    7.65  0. 1.0000     0.      0.00 
   5  -2   5     45.10    1.09  0. 1.0000     0.      0.00 
   6  -2   5   3168.80   33.10  0. 1.0000     0.      0.00 
   7  -2   5   1009.58   13.83  0. 1.0000     0.      0.00 
   8  -2   5     51.61    2.47  0. 1.0000     0.      0.00 
   9  -2   5    247.75    4.84  0. 1.0000     0.      0.00 
  10  -2   5     30.79    6.56  0. 1.0000     0.      0.00 
  11  -2   5     18.57   15.71  0. 1.0000     0.      0.00 
  12  -2   5      0.00   50.33  0. 1.0000     0.      0.00 
  13  -2   5     99.97   19.33  0. 1.0000     0.      0.00 
  14  -2   5     37.94   13.31  0. 1.0000     0.      0.00 
 -13  -1   5      0.00   28.99  0. 1.0000     0.      0.00 
 -12  -1   5     43.52   12.98  0. 1.0000     0.      0.00 
 -11  -1   5     72.51    8.94  0. 1.0000     0.      0.00 
 -10  -1   5    637.42    8.93  0. 1.0000     0.      0.00 
  -9  -1   5   1177.71   13.98  0. 1.0000     0.      0.00 
  -8  -1   5    224.31    3.85  0. 1.0000     0.      0.00 
  -7  -1   5    304.23    4.08  0. 1.0000     0.      0.00 
  -6  -1   5     77.84    2.87  0. 1.0000     0.      0.00 
  -5  -1   5   1813.13   20.95  0. 1.0000     0.      0.00 
  -4  -1   5    406.97    4.23  0. 1.0000     0.      0.00 
  -3  -1   5    690.28    6.29  0. 1.0000     0.      0.00 
  -2  -1   5   2830.21   22.56  0. 1.0000     0.      0.00 
  -1  -1   5   1880.76   16.42  0. 1.0000     0.      0.00 
   0  -1   5    244.13    2.78  0. 1.0000     0.      0.00 
   1  -1   5    842.62   12.40  0. 1.0000     0.      0.00 
   2  -1   5   2499.74   28.17  0. 1.0000     0.      0.00 
   3  -1   5   1895.11   17.70  0. 1.0000     0.      0.00 
   4  -1   5    103.48    1.36  0. 1.0000     0.      0.00 
   5  -1   5    599.84    7.09  0. 1.0000     0.      0.00 
   6  -1   5    187.44    3.15  0. 1.0000     0.      0.00 
   7  -1   5    686.23   12.65  0. 1.0000     0.      0.00 
   8  -1   5     20.44    3.27  0. 1.0000     0.      0.00 
   9  -1   5    818.50   50.39  0. 1.0000     0.      0.00 
  10  -1   5      5.43    4.85  0. 1.0000     0.      0.00 
  11  -1   5     37.93    6.15  0. 1.0000     0.      0.00 
  12  -1   5     17.04    5.46  0. 1.0000     0.      0.00 
  13  -1   5    371.89    7.70  0. 1.0000     0.      0.00 
 -13   0   5    357.41   11.29  0. 1.0000     0.      0.00 
 -12   0   5     18.86    4.97  0. 1.0000     0.      0.00 
 -11   0   5      0.00    3.33  0. 1.0000     0.      0.00 
 -10   0   5     61.39    3.16  0. 1.0000     0.      0.00 
  -9   0   5   1626.70   18.93  0. 1.0000     0.      0.00 
  -8   0   5      8.33    2.92  0. 1.0000     0.      0.00 
  -7   0   5    128.24    2.79  0. 1.0000     0.      0.00 
  -6   0   5    241.05    4.31  0. 1.0000     0.      0.00 
  -5   0   5   1833.82   18.73  0. 1.0000     0.      0.00 
  -4   0   5      7.95    0.69  0. 1.0000     0.      0.00 
  -3   0   5   4645.15   50.29  0. 1.0000     0.      0.00 
  -2   0   5     38.04    0.88  0. 1.0000     0.      0.00 
  -1   0   5    610.43    8.41  0. 1.0000     0.      0.00 
   0   0   5     19.75    0.49  0. 1.0000     0.      0.00 
   1   0   5   1047.24   11.37  0. 1.0000     0.      0.00 
   2   0   5     29.07    0.69  0. 1.0000     0.      0.00 
   3   0   5   3852.31   42.40  0. 1.0000     0.      0.00 
   4   0   5     17.67    0.65  0. 1.0000     0.      0.00 
   5   0   5   1407.55   13.50  0. 1.0000     0.      0.00 
   6   0   5    385.81    4.61  0. 1.0000     0.      0.00 
   7   0   5     68.17    2.36  0. 1.0000     0.      0.00 
   8   0   5      0.18    2.48  0. 1.0000     0.      0.00 
   9   0   5   1496.90   17.92  0. 1.0000     0.      0.00 
  10   0   5      1.50    3.31  0. 1.0000     0.      0.00 
  11   0   5      9.41    3.95  0. 1.0000     0.      0.00 
  12   0   5     30.19    5.53  0. 1.0000     0.      0.00 
  13   0   5     72.58   10.28  0. 1.0000     0.      0.00 
 -14   1   5     12.81   14.02  0. 1.0000     0.      0.00 
 -13   1   5    962.69   14.40  0. 1.0000     0.      0.00 
 -12   1   5      4.52    5.39  0. 1.0000     0.      0.00 
 -11   1   5    137.27    7.02  0. 1.0000     0.      0.00 
 -10   1   5      0.00    4.79  0. 1.0000     0.      0.00 
  -9   1   5    500.21   27.70  0. 1.0000     0.      0.00 
  -8   1   5     19.50    4.49  0. 1.0000     0.      0.00 
  -7   1   5   2136.73   24.54  0. 1.0000     0.      0.00 
  -6   1   5    320.56    3.79  0. 1.0000     0.      0.00 
  -5   1   5    446.50    5.95  0. 1.0000     0.      0.00 
  -4   1   5     10.59    0.93  0. 1.0000     0.      0.00 
  -3   1   5   1321.69   14.34  0. 1.0000     0.      0.00 
  -2   1   5   2661.87   28.57  0. 1.0000     0.      0.00 
  -1   1   5    892.04   12.30  0. 1.0000     0.      0.00 
   0   1   5    113.70    1.95  0. 1.0000     0.      0.00 
   1   1   5   2311.26   20.23  0. 1.0000     0.      0.00 
   2   1   5   1781.75   15.16  0. 1.0000     0.      0.00 
   3   1   5     60.75    1.00  0. 1.0000     0.      0.00 
   4   1   5   1025.81   11.06  0. 1.0000     0.      0.00 
   5   1   5   1303.58   12.44  0. 1.0000     0.      0.00 
   6   1   5     22.72    1.57  0. 1.0000     0.      0.00 
   7   1   5      0.00    1.92  0. 1.0000     0.      0.00 
   8   1   5     71.15    2.12  0. 1.0000     0.      0.00 
   9   1   5    512.99   12.31  0. 1.0000     0.      0.00 
  10   1   5    349.83    7.18  0. 1.0000     0.      0.00 
  11   1   5     14.99    9.29  0. 1.0000     0.      0.00 
  12   1   5     81.89   16.54  0. 1.0000     0.      0.00 
  13   1   5     15.05   23.62  0. 1.0000     0.      0.00 
 -14   2   5     57.69   10.49  0. 1.0000     0.      0.00 
 -13   2   5    153.77   12.17  0. 1.0000     0.      0.00 
 -12   2   5      0.00   34.77  0. 1.0000     0.      0.00 
 -11   2   5     57.46   32.11  0. 1.0000     0.      0.00 
 -10   2   5    153.33    6.53  0. 1.0000     0.      0.00 
  -9   2   5    176.63    4.43  0. 1.0000     0.      0.00 
  -8   2   5    209.62    3.46  0. 1.0000     0.      0.00 
  -7   2   5   1433.76   16.91  0. 1.0000     0.      0.00 
  -6   2   5   3029.43   31.58  0. 1.0000     0.      0.00 
  -5   2   5     29.72    1.09  0. 1.0000     0.      0.00 
  -4   2   5    862.02    9.60  0. 1.0000     0.      0.00 
  -3   2   5    479.65    5.47  0. 1.0000     0.      0.00 
  -2   2   5   4673.25   40.44  0. 1.0000     0.      0.00 
  -1   2   5    923.03    8.23  0. 1.0000     0.      0.00 
   0   2   5   1880.78   16.06  0. 1.0000     0.      0.00 
   1   2   5    385.93    3.99  0. 1.0000     0.      0.00 
   2   2   5    256.01    2.87  0. 1.0000     0.      0.00 
   3   2   5     26.73    2.05  0. 1.0000     0.      0.00 
   4   2   5    695.08    6.63  0. 1.0000     0.      0.00 
   5   2   5    619.98   12.97  0. 1.0000     0.      0.00 
   6   2   5    470.27    5.47  0. 1.0000     0.      0.00 
   7   2   5      4.32    2.18  0. 1.0000     0.      0.00 
   8   2   5    499.18    6.68  0. 1.0000     0.      0.00 
   9   2   5     45.00    7.30  0. 1.0000     0.      0.00 
  10   2   5     21.12   23.99  0. 1.0000     0.      0.00 
  11   2   5      0.00   28.33  0. 1.0000     0.      0.00 
  12   2   5    177.98   16.81  0. 1.0000     0.      0.00 
  13   2   5     12.28   11.00  0. 1.0000     0.      0.00 
 -14   3   5     15.97   22.25  0. 1.0000     0.      0.00 
 -13   3   5     17.98   14.19  0. 1.0000     0.      0.00 
 -12   3   5    111.45    9.35  0. 1.0000     0.      0.00 
 -11   3   5    238.67    6.15  0. 1.0000     0.      0.00 
 -10   3   5   1458.59   19.21  0. 1.0000     0.      0.00 
  -9   3   5      3.10    1.69  0. 1.0000     0.      0.00 
  -8   3   5    147.06    2.37  0. 1.0000     0.      0.00 
  -7   3   5      6.98    1.66  0. 1.0000     0.      0.00 
  -6   3   5   2874.25   34.02  0. 1.0000     0.      0.00 
  -5   3   5     46.85    1.42  0. 1.0000     0.      0.00 
  -4   3   5    430.18    3.90  0. 1.0000     0.      0.00 
  -3   3   5     45.05    0.88  0. 1.0000     0.      0.00 
  -2   3   5   1814.41   14.66  0. 1.0000     0.      0.00 
  -1   3   5      1.43    2.64  0. 1.0000     0.      0.00 
   0   3   5   3335.92   30.13  0. 1.0000     0.      0.00 
   1   3   5    205.87    7.87  0. 1.0000     0.      0.00 
   2   3   5     37.09    0.81  0. 1.0000     0.      0.00 
   3   3   5    299.91    6.51  0. 1.0000     0.      0.00 
   4   3   5   1484.66   14.57  0. 1.0000     0.      0.00 
   5   3   5    412.01   19.65  0. 1.0000     0.      0.00 
   6   3   5    414.60    5.16  0. 1.0000     0.      0.00 
   7   3   5    109.71    9.36  0. 1.0000     0.      0.00 
   8   3   5    236.07   16.68  0. 1.0000     0.      0.00 
   9   3   5      7.72    6.19  0. 1.0000     0.      0.00 
  10   3   5      9.61    5.98  0. 1.0000     0.      0.00 
  11   3   5      6.51    5.82  0. 1.0000     0.      0.00 
  12   3   5    219.76    6.95  0. 1.0000     0.      0.00 
 -14   4   5    136.38    9.73  0. 1.0000     0.      0.00 
 -13   4   5     12.29    5.23  0. 1.0000     0.      0.00 
 -12   4   5    107.17    4.79  0. 1.0000     0.      0.00 
 -11   4   5     78.37    3.78  0. 1.0000     0.      0.00 
 -10   4   5    941.81   15.04  0. 1.0000     0.      0.00 
  -9   4   5     11.94    2.85  0. 1.0000     0.      0.00 
  -8   4   5     77.11    2.80  0. 1.0000     0.      0.00 
  -7   4   5    137.76    4.18  0. 1.0000     0.      0.00 
  -6   4   5   1638.05   20.11  0. 1.0000     0.      0.00 
  -5   4   5    118.28    6.24  0. 1.0000     0.      0.00 
  -4   4   5   3408.86   31.30  0. 1.0000     0.      0.00 
  -3   4   5   1460.12   19.92  0. 1.0000     0.      0.00 
  -2   4   5    117.98    1.56  0. 1.0000     0.      0.00 
  -1   4   5     79.52    3.82  0. 1.0000     0.      0.00 
   0   4   5   1952.40   19.43  0. 1.0000     0.      0.00 
   1   4   5   1761.31   21.13  0. 1.0000     0.      0.00 
   2   4   5    536.12    6.17  0. 1.0000     0.      0.00 
   3   4   5     81.98    2.56  0. 1.0000     0.      0.00 
   4   4   5    272.41    4.35  0. 1.0000     0.      0.00 
   5   4   5    587.84    8.38  0. 1.0000     0.      0.00 
   6   4   5      2.18    2.69  0. 1.0000     0.      0.00 
   7   4   5    246.46    4.72  0. 1.0000     0.      0.00 
   8   4   5    243.21    4.68  0. 1.0000     0.      0.00 
   9   4   5      5.49    3.30  0. 1.0000     0.      0.00 
  10   4   5      0.00    3.87  0. 1.0000     0.      0.00 
  11   4   5    167.13    6.80  0. 1.0000     0.      0.00 
  12   4   5      3.94   10.26  0. 1.0000     0.      0.00 
 -14   5   5    204.70    7.53  0. 1.0000     0.      0.00 
 -13   5   5     16.36    6.44  0. 1.0000     0.      0.00 
 -12   5   5     12.23    7.38  0. 1.0000     0.      0.00 
 -11   5   5    267.96   11.65  0. 1.0000     0.      0.00 
 -10   5   5    161.16   17.62  0. 1.0000     0.      0.00 
  -9   5   5     28.01    6.32  0. 1.0000     0.      0.00 
  -8   5   5    631.67    7.84  0. 1.0000     0.      0.00 
  -7   5   5   1171.22   12.99  0. 1.0000     0.      0.00 
  -6   5   5     47.59    3.30  0. 1.0000     0.      0.00 
  -5   5   5    148.76    2.95  0. 1.0000     0.      0.00 
  -4   5   5    412.66    6.72  0. 1.0000     0.      0.00 
  -3   5   5   2709.21   24.54  0. 1.0000     0.      0.00 
  -2   5   5     10.82    2.27  0. 1.0000     0.      0.00 
  -1   5   5    148.53    2.45  0. 1.0000     0.      0.00 
   0   5   5    334.52    9.41  0. 1.0000     0.      0.00 
   1   5   5   2551.67   24.04  0. 1.0000     0.      0.00 
   2   5   5     25.71    1.39  0. 1.0000     0.      0.00 
   3   5   5    963.19   10.66  0. 1.0000     0.      0.00 
   4   5   5     17.38    1.97  0. 1.0000     0.      0.00 
   5   5   5      7.52    2.03  0. 1.0000     0.      0.00 
   6   5   5     64.71    2.61  0. 1.0000     0.      0.00 
   7   5   5    472.27    6.37  0. 1.0000     0.      0.00 
   8   5   5      3.19    3.34  0. 1.0000     0.      0.00 
   9   5   5     61.65    6.08  0. 1.0000     0.      0.00 
  10   5   5     29.44   11.56  0. 1.0000     0.      0.00 
  11   5   5     89.65   22.09  0. 1.0000     0.      0.00 
 -14   6   5     18.18   17.55  0. 1.0000     0.      0.00 
 -13   6   5     42.74   33.42  0. 1.0000     0.      0.00 
 -12   6   5     29.83   46.14  0. 1.0000     0.      0.00 
 -11   6   5    334.01   10.19  0. 1.0000     0.      0.00 
 -10   6   5      0.00    5.08  0. 1.0000     0.      0.00 
  -9   6   5    715.14    8.99  0. 1.0000     0.      0.00 
  -8   6   5     52.51    6.32  0. 1.0000     0.      0.00 
  -7   6   5   1036.82    8.44  0. 1.0000     0.      0.00 
  -6   6   5     29.90    2.24  0. 1.0000     0.      0.00 
  -5   6   5     71.62    2.01  0. 1.0000     0.      0.00 
  -4   6   5      0.00    4.39  0. 1.0000     0.      0.00 
  -3   6   5   2515.99   23.08  0. 1.0000     0.      0.00 
  -2   6   5    116.86    1.89  0. 1.0000     0.      0.00 
  -1   6   5    876.62    8.80  0. 1.0000     0.      0.00 
   0   6   5    328.82    3.83  0. 1.0000     0.      0.00 
   1   6   5    121.68    3.01  0. 1.0000     0.      0.00 
   2   6   5      3.87    1.62  0. 1.0000     0.      0.00 
   3   6   5    894.15    9.16  0. 1.0000     0.      0.00 
   4   6   5     34.36    1.65  0. 1.0000     0.      0.00 
   5   6   5     13.45    2.15  0. 1.0000     0.      0.00 
   6   6   5      6.78    3.13  0. 1.0000     0.      0.00 
   7   6   5    333.51    6.51  0. 1.0000     0.      0.00 
   8   6   5    219.60   19.25  0. 1.0000     0.      0.00 
   9   6   5      7.94   27.54  0. 1.0000     0.      0.00 
  10   6   5      0.00   49.28  0. 1.0000     0.      0.00 
  11   6   5     58.06   12.01  0. 1.0000     0.      0.00 
 -13   7   5     95.52   10.90  0. 1.0000     0.      0.00 
 -12   7   5      0.00    7.36  0. 1.0000     0.      0.00 
 -11   7   5    324.52    6.11  0. 1.0000     0.      0.00 
 -10   7   5      0.00    2.10  0. 1.0000     0.      0.00 
  -9   7   5     87.72    2.19  0. 1.0000     0.      0.00 
  -8   7   5    580.47   11.28  0. 1.0000     0.      0.00 
  -7   7   5    475.93    6.62  0. 1.0000     0.      0.00 
  -6   7   5     83.50    3.05  0. 1.0000     0.      0.00 
  -5   7   5    148.64    4.12  0. 1.0000     0.      0.00 
  -4   7   5    583.98    8.50  0. 1.0000     0.      0.00 
  -3   7   5    994.49   15.36  0. 1.0000     0.      0.00 
  -2   7   5    192.14    4.16  0. 1.0000     0.      0.00 
  -1   7   5    734.37   10.03  0. 1.0000     0.      0.00 
   0   7   5    691.44    8.76  0. 1.0000     0.      0.00 
   1   7   5     47.36    1.70  0. 1.0000     0.      0.00 
   2   7   5     52.52    2.31  0. 1.0000     0.      0.00 
   3   7   5    656.99    7.81  0. 1.0000     0.      0.00 
   4   7   5    744.27    8.79  0. 1.0000     0.      0.00 
   5   7   5     38.99    5.73  0. 1.0000     0.      0.00 
   6   7   5    192.34   39.68  0. 1.0000     0.      0.00 
   8   7   5     10.96   10.44  0. 1.0000     0.      0.00 
   9   7   5     21.71    8.77  0. 1.0000     0.      0.00 
  10   7   5     36.91    8.87  0. 1.0000     0.      0.00 
 -13   8   5    226.55    6.92  0. 1.0000     0.      0.00 
 -12   8   5    464.41    9.42  0. 1.0000     0.      0.00 
 -11   8   5      7.77    6.19  0. 1.0000     0.      0.00 
 -10   8   5     73.32    4.45  0. 1.0000     0.      0.00 
  -9   8   5      6.08    4.94  0. 1.0000     0.      0.00 
  -8   8   5    768.55   44.89  0. 1.0000     0.      0.00 
  -7   8   5    369.90   19.15  0. 1.0000     0.      0.00 
  -6   8   5    185.16    4.88  0. 1.0000     0.      0.00 
  -5   8   5    274.49    4.04  0. 1.0000     0.      0.00 
  -4   8   5    858.29    9.46  0. 1.0000     0.      0.00 
  -3   8   5      2.76    2.49  0. 1.0000     0.      0.00 
  -2   8   5     80.16    1.94  0. 1.0000     0.      0.00 
  -1   8   5     50.47    2.92  0. 1.0000     0.      0.00 
   0   8   5    765.28    9.49  0. 1.0000     0.      0.00 
   1   8   5     63.45    2.88  0. 1.0000     0.      0.00 
   2   8   5     85.61    4.00  0. 1.0000     0.      0.00 
   3   8   5      0.00   27.25  0. 1.0000     0.      0.00 
   5   8   5     10.35    6.38  0. 1.0000     0.      0.00 
   6   8   5    176.77    7.96  0. 1.0000     0.      0.00 
   7   8   5      8.90    6.54  0. 1.0000     0.      0.00 
   8   8   5      4.42    6.64  0. 1.0000     0.      0.00 
   9   8   5      0.00    6.07  0. 1.0000     0.      0.00 
 -13   9   5      5.52   12.02  0. 1.0000     0.      0.00 
 -12   9   5    434.58   27.97  0. 1.0000     0.      0.00 
 -10   9   5     16.27   16.23  0. 1.0000     0.      0.00 
  -9   9   5     22.55    6.93  0. 1.0000     0.      0.00 
  -8   9   5    608.15    9.02  0. 1.0000     0.      0.00 
  -7   9   5      0.66    3.39  0. 1.0000     0.      0.00 
  -6   9   5    556.77    7.98  0. 1.0000     0.      0.00 
  -5   9   5    153.63    3.10  0. 1.0000     0.      0.00 
  -4   9   5    185.47    3.47  0. 1.0000     0.      0.00 
  -3   9   5     29.12    2.62  0. 1.0000     0.      0.00 
  -2   9   5     37.43    2.97  0. 1.0000     0.      0.00 
  -1   9   5     77.30    3.53  0. 1.0000     0.      0.00 
   0   9   5    922.59   94.32  0. 1.0000     0.      0.00 
   1   9   5      0.00   27.14  0. 1.0000     0.      0.00 
   2   9   5    157.35    8.07  0. 1.0000     0.      0.00 
   3   9   5    261.35    4.94  0. 1.0000     0.      0.00 
   4   9   5      4.28    3.95  0. 1.0000     0.      0.00 
   5   9   5      8.22    5.10  0. 1.0000     0.      0.00 
   6   9   5    145.06    6.20  0. 1.0000     0.      0.00 
   7   9   5     34.22    6.87  0. 1.0000     0.      0.00 
   8   9   5      8.49    9.75  0. 1.0000     0.      0.00 
 -12  10   5    141.16   26.34  0. 1.0000     0.      0.00 
 -11  10   5      4.13    9.78  0. 1.0000     0.      0.00 
 -10  10   5    379.95   13.65  0. 1.0000     0.      0.00 
  -9  10   5    161.29    4.28  0. 1.0000     0.      0.00 
  -8  10   5     40.40    2.78  0. 1.0000     0.      0.00 
  -7  10   5     10.40    2.84  0. 1.0000     0.      0.00 
  -6  10   5     87.61    3.86  0. 1.0000     0.      0.00 
  -5  10   5    501.61    7.73  0. 1.0000     0.      0.00 
  -4  10   5    280.52    7.84  0. 1.0000     0.      0.00 
  -3  10   5     67.93   45.53  0. 1.0000     0.      0.00 
  -2  10   5    175.81   19.69  0. 1.0000     0.      0.00 
  -1  10   5    627.57   11.46  0. 1.0000     0.      0.00 
   0  10   5     84.52    3.83  0. 1.0000     0.      0.00 
   1  10   5     89.75    3.96  0. 1.0000     0.      0.00 
   2  10   5     52.82    3.33  0. 1.0000     0.      0.00 
   3  10   5     44.51    2.91  0. 1.0000     0.      0.00 
   4  10   5      6.99    5.02  0. 1.0000     0.      0.00 
   5  10   5      6.71    6.43  0. 1.0000     0.      0.00 
   6  10   5     21.46   10.41  0. 1.0000     0.      0.00 
   7  10   5    147.42   22.29  0. 1.0000     0.      0.00 
 -11  11   5     18.13    5.43  0. 1.0000     0.      0.00 
 -10  11   5    108.44    5.26  0. 1.0000     0.      0.00 
  -9  11   5    542.11   11.83  0. 1.0000     0.      0.00 
  -8  11   5     13.90    8.09  0. 1.0000     0.      0.00 
  -7  11   5     78.32   12.19  0. 1.0000     0.      0.00 
  -6  11   5      0.00   50.30  0. 1.0000     0.      0.00 
  -5  11   5    849.54   68.28  0. 1.0000     0.      0.00 
  -4  11   5    161.15    9.42  0. 1.0000     0.      0.00 
  -3  11   5    212.18    5.73  0. 1.0000     0.      0.00 
  -2  11   5     13.87    3.58  0. 1.0000     0.      0.00 
  -1  11   5    149.55    4.18  0. 1.0000     0.      0.00 
   0  11   5      3.38    2.55  0. 1.0000     0.      0.00 
   1  11   5     23.66    4.15  0. 1.0000     0.      0.00 
   2  11   5      0.00    5.39  0. 1.0000     0.      0.00 
   3  11   5    176.15    8.86  0. 1.0000     0.      0.00 
   4  11   5      4.10   15.28  0. 1.0000     0.      0.00 
   5  11   5     64.29   51.68  0. 1.0000     0.      0.00 
   6  11   5      3.70   49.63  0. 1.0000     0.      0.00 
 -11  12   5     10.50   19.89  0. 1.0000     0.      0.00 
 -10  12   5      2.91   46.58  0. 1.0000     0.      0.00 
  -8  12   5      0.00   37.46  0. 1.0000     0.      0.00 
  -7  12   5      0.00   18.50  0. 1.0000     0.      0.00 
  -6  12   5     23.76    8.93  0. 1.0000     0.      0.00 
  -5  12   5    233.95    7.80  0. 1.0000     0.      0.00 
  -4  12   5      8.56    5.15  0. 1.0000     0.      0.00 
  -3  12   5    123.66    6.70  0. 1.0000     0.      0.00 
  -2  12   5    166.91    8.05  0. 1.0000     0.      0.00 
  -1  12   5     19.38    6.18  0. 1.0000     0.      0.00 
   0  12   5     35.66    7.48  0. 1.0000     0.      0.00 
   1  12   5    108.34   13.94  0. 1.0000     0.      0.00 
   4  12   5      0.49   17.43  0. 1.0000     0.      0.00 
   5  12   5      8.96   11.74  0. 1.0000     0.      0.00 
  -9  13   5    146.60   12.95  0. 1.0000     0.      0.00 
  -8  13   5     23.96    9.09  0. 1.0000     0.      0.00 
  -7  13   5    141.16    6.45  0. 1.0000     0.      0.00 
  -6  13   5    267.71    6.25  0. 1.0000     0.      0.00 
  -5  13   5      9.42    4.41  0. 1.0000     0.      0.00 
  -4  13   5     13.24    6.17  0. 1.0000     0.      0.00 
  -3  13   5     39.95   10.50  0. 1.0000     0.      0.00 
  -2  13   5    226.98   24.93  0. 1.0000     0.      0.00 
   1  13   5      2.06   16.68  0. 1.0000     0.      0.00 
   2  13   5    134.58   11.27  0. 1.0000     0.      0.00 
   3  13   5      9.11    8.66  0. 1.0000     0.      0.00 
  -8  14   5     14.88    6.10  0. 1.0000     0.      0.00 
  -7  14   5     13.77   10.33  0. 1.0000     0.      0.00 
  -6  14   5    246.14   17.70  0. 1.0000     0.      0.00 
  -5  14   5     29.94   34.94  0. 1.0000     0.      0.00 
  -3  14   5      0.00   30.26  0. 1.0000     0.      0.00 
  -2  14   5    315.25   18.89  0. 1.0000     0.      0.00 
  -1  14   5      0.00   11.95  0. 1.0000     0.      0.00 
   0  14   5     55.69    7.92  0. 1.0000     0.      0.00 
   1  14   5     31.50    6.52  0. 1.0000     0.      0.00 
   2 -15   6     67.55   20.71  0. 1.0000     0.      0.00 
   3 -15   6     12.17    7.89  0. 1.0000     0.      0.00 
   4 -15   6     39.98   11.61  0. 1.0000     0.      0.00 
   5 -15   6    158.79   34.44  0. 1.0000     0.      0.00 
  -1 -14   6      3.10    5.50  0. 1.0000     0.      0.00 
   0 -14   6      8.63    6.61  0. 1.0000     0.      0.00 
   1 -14   6    121.92    8.73  0. 1.0000     0.      0.00 
   2 -14   6     16.41   12.98  0. 1.0000     0.      0.00 
   3 -14   6     96.85   47.21  0. 1.0000     0.      0.00 
   5 -14   6     11.62   19.90  0. 1.0000     0.      0.00 
   6 -14   6      8.69   10.00  0. 1.0000     0.      0.00 
   7 -14   6     83.43    8.08  0. 1.0000     0.      0.00 
   8 -14   6     30.79    6.52  0. 1.0000     0.      0.00 
  -3 -13   6     27.38    7.43  0. 1.0000     0.      0.00 
  -2 -13   6      3.45    8.05  0. 1.0000     0.      0.00 
  -1 -13   6     31.58   11.04  0. 1.0000     0.      0.00 
   0 -13   6    144.33   30.00  0. 1.0000     0.      0.00 
   2 -13   6    200.91   14.95  0. 1.0000     0.      0.00 
   3 -13   6    177.59    8.28  0. 1.0000     0.      0.00 
   4 -13   6     58.63    5.88  0. 1.0000     0.      0.00 
   5 -13   6     12.28    4.81  0. 1.0000     0.      0.00 
   6 -13   6     11.69    4.30  0. 1.0000     0.      0.00 
   7 -13   6      0.00    5.49  0. 1.0000     0.      0.00 
   8 -13   6    465.33   11.52  0. 1.0000     0.      0.00 
   9 -13   6    255.35   12.98  0. 1.0000     0.      0.00 
  10 -13   6     14.37   24.51  0. 1.0000     0.      0.00 
  -5 -12   6     21.95    9.86  0. 1.0000     0.      0.00 
  -4 -12   6      0.00   14.77  0. 1.0000     0.      0.00 
  -3 -12   6      0.00   37.02  0. 1.0000     0.      0.00 
  -2 -12   6    731.73   85.67  0. 1.0000     0.      0.00 
  -1 -12   6     17.45   13.75  0. 1.0000     0.      0.00 
   0 -12   6      9.58    6.12  0. 1.0000     0.      0.00 
   1 -12   6     89.93    6.83  0. 1.0000     0.      0.00 
   2 -12   6     74.45    6.32  0. 1.0000     0.      0.00 
   3 -12   6      6.72    3.33  0. 1.0000     0.      0.00 
   4 -12   6    137.09    6.69  0. 1.0000     0.      0.00 
   5 -12   6     16.54    7.23  0. 1.0000     0.      0.00 
   6 -12   6    149.47    9.83  0. 1.0000     0.      0.00 
   7 -12   6     28.74   12.75  0. 1.0000     0.      0.00 
   8 -12   6    219.38   41.98  0. 1.0000     0.      0.00 
   9 -12   6     44.41   37.05  0. 1.0000     0.      0.00 
  10 -12   6     20.39   23.92  0. 1.0000     0.      0.00 
  11 -12   6      3.87   12.73  0. 1.0000     0.      0.00 
  -5 -11   6      0.00   40.61  0. 1.0000     0.      0.00 
  -4 -11   6     29.56   15.04  0. 1.0000     0.      0.00 
  -3 -11   6     28.96    7.39  0. 1.0000     0.      0.00 
  -2 -11   6    852.62   14.23  0. 1.0000     0.      0.00 
  -1 -11   6     23.15    3.72  0. 1.0000     0.      0.00 
   0 -11   6     17.22    3.40  0. 1.0000     0.      0.00 
   1 -11   6    145.13    4.10  0. 1.0000     0.      0.00 
   2 -11   6     46.52    4.95  0. 1.0000     0.      0.00 
   3 -11   6    464.59    8.11  0. 1.0000     0.      0.00 
   4 -11   6    916.06   15.50  0. 1.0000     0.      0.00 
   5 -11   6     43.46   22.00  0. 1.0000     0.      0.00 
   6 -11   6      8.01   21.57  0. 1.0000     0.      0.00 
   7 -11   6     70.00   11.24  0. 1.0000     0.      0.00 
   8 -11   6     28.48    9.67  0. 1.0000     0.      0.00 
   9 -11   6     58.68    7.21  0. 1.0000     0.      0.00 
  10 -11   6    144.72    5.76  0. 1.0000     0.      0.00 
  11 -11   6    121.91    5.59  0. 1.0000     0.      0.00 
  12 -11   6     81.09    9.57  0. 1.0000     0.      0.00 
  -7 -10   6    118.41   25.73  0. 1.0000     0.      0.00 
  -6 -10   6    421.54   12.00  0. 1.0000     0.      0.00 
  -5 -10   6     27.55    6.68  0. 1.0000     0.      0.00 
  -4 -10   6      0.00    5.65  0. 1.0000     0.      0.00 
  -3 -10   6     21.15    2.78  0. 1.0000     0.      0.00 
  -2 -10   6     97.98    3.67  0. 1.0000     0.      0.00 
  -1 -10   6     51.54    3.45  0. 1.0000     0.      0.00 
   0 -10   6    145.77    4.97  0. 1.0000     0.      0.00 
   1 -10   6    481.32    8.45  0. 1.0000     0.      0.00 
   2 -10   6     18.47   13.71  0. 1.0000     0.      0.00 
   3 -10   6     69.23   20.22  0. 1.0000     0.      0.00 
   4 -10   6    282.82    6.57  0. 1.0000     0.      0.00 
   5 -10   6    309.98    6.10  0. 1.0000     0.      0.00 
   6 -10   6     36.68    3.82  0. 1.0000     0.      0.00 
   7 -10   6     12.25    3.41  0. 1.0000     0.      0.00 
   8 -10   6     56.35    3.49  0. 1.0000     0.      0.00 
   9 -10   6    407.76    7.87  0. 1.0000     0.      0.00 
  10 -10   6      6.45    7.00  0. 1.0000     0.      0.00 
  11 -10   6    326.37   12.97  0. 1.0000     0.      0.00 
  12 -10   6    161.09   20.15  0. 1.0000     0.      0.00 
  -8  -9   6      1.67    7.97  0. 1.0000     0.      0.00 
  -7  -9   6    261.67    8.15  0. 1.0000     0.      0.00 
  -6  -9   6    140.07    6.02  0. 1.0000     0.      0.00 
  -5  -9   6      2.07    4.60  0. 1.0000     0.      0.00 
  -4  -9   6     89.71    4.49  0. 1.0000     0.      0.00 
  -3  -9   6     11.62    3.50  0. 1.0000     0.      0.00 
  -2  -9   6      0.00    4.38  0. 1.0000     0.      0.00 
  -1  -9   6    525.25   26.62  0. 1.0000     0.      0.00 
   0  -9   6     42.31   11.90  0. 1.0000     0.      0.00 
   1  -9   6   2033.93   23.88  0. 1.0000     0.      0.00 
   2  -9   6    128.48    3.80  0. 1.0000     0.      0.00 
   3  -9   6    753.77    9.32  0. 1.0000     0.      0.00 
   4  -9   6     62.79    2.52  0. 1.0000     0.      0.00 
   5  -9   6    802.64    8.72  0. 1.0000     0.      0.00 
   6  -9   6    217.97    4.01  0. 1.0000     0.      0.00 
   7  -9   6    899.21   11.44  0. 1.0000     0.      0.00 
   8  -9   6     36.83    4.39  0. 1.0000     0.      0.00 
   9  -9   6     16.02    8.32  0. 1.0000     0.      0.00 
  10  -9   6      0.00   27.81  0. 1.0000     0.      0.00 
  12  -9   6      0.00   22.20  0. 1.0000     0.      0.00 
  13  -9   6     59.82   13.08  0. 1.0000     0.      0.00 
  -9  -8   6     51.79    5.59  0. 1.0000     0.      0.00 
  -8  -8   6     20.41    6.61  0. 1.0000     0.      0.00 
  -7  -8   6      8.64    6.27  0. 1.0000     0.      0.00 
  -6  -8   6      8.72    5.48  0. 1.0000     0.      0.00 
  -5  -8   6     22.29    5.57  0. 1.0000     0.      0.00 
  -4  -8   6     26.81   16.18  0. 1.0000     0.      0.00 
  -3  -8   6   1427.21   49.12  0. 1.0000     0.      0.00 
  -2  -8   6     61.62    3.38  0. 1.0000     0.      0.00 
  -1  -8   6      8.91    2.48  0. 1.0000     0.      0.00 
   0  -8   6      3.57    2.38  0. 1.0000     0.      0.00 
   1  -8   6   1114.38   11.26  0. 1.0000     0.      0.00 
   2  -8   6      0.00    1.44  0. 1.0000     0.      0.00 
   3  -8   6     17.81    2.68  0. 1.0000     0.      0.00 
   4  -8   6     72.97    2.47  0. 1.0000     0.      0.00 
   5  -8   6    360.34    6.89  0. 1.0000     0.      0.00 
   6  -8   6    517.37    6.71  0. 1.0000     0.      0.00 
   7  -8   6   1238.28   35.78  0. 1.0000     0.      0.00 
   8  -8   6      0.00   35.50  0. 1.0000     0.      0.00 
   9  -8   6     16.05    6.99  0. 1.0000     0.      0.00 
  10  -8   6     33.97    5.75  0. 1.0000     0.      0.00 
  11  -8   6    148.23    8.79  0. 1.0000     0.      0.00 
  12  -8   6    496.34   10.13  0. 1.0000     0.      0.00 
  13  -8   6     57.94    5.77  0. 1.0000     0.      0.00 
 -10  -7   6     12.09    8.03  0. 1.0000     0.      0.00 
  -9  -7   6     14.66    7.99  0. 1.0000     0.      0.00 
  -8  -7   6     37.26   11.75  0. 1.0000     0.      0.00 
  -7  -7   6     41.80   20.76  0. 1.0000     0.      0.00 
  -6  -7   6     77.88   40.67  0. 1.0000     0.      0.00 
  -5  -7   6     43.77    4.70  0. 1.0000     0.      0.00 
  -4  -7   6   1526.25   16.46  0. 1.0000     0.      0.00 
  -3  -7   6   1679.10   17.54  0. 1.0000     0.      0.00 
  -2  -7   6    249.40    3.90  0. 1.0000     0.      0.00 
  -1  -7   6     51.42    1.52  0. 1.0000     0.      0.00 
   0  -7   6      5.26    1.86  0. 1.0000     0.      0.00 
   1  -7   6    152.38    9.25  0. 1.0000     0.      0.00 
   2  -7   6   1876.84   21.73  0. 1.0000     0.      0.00 
   3  -7   6   1041.54   11.80  0. 1.0000     0.      0.00 
   4  -7   6   1024.16   14.54  0. 1.0000     0.      0.00 
   5  -7   6      1.66    2.25  0. 1.0000     0.      0.00 
   6  -7   6    190.23    3.61  0. 1.0000     0.      0.00 
   7  -7   6    255.48    5.19  0. 1.0000     0.      0.00 
   8  -7   6   1286.32   15.48  0. 1.0000     0.      0.00 
   9  -7   6      0.00    2.45  0. 1.0000     0.      0.00 
  10  -7   6     74.35    2.84  0. 1.0000     0.      0.00 
  11  -7   6     61.89    6.76  0. 1.0000     0.      0.00 
  12  -7   6    175.24    7.82  0. 1.0000     0.      0.00 
  13  -7   6     13.15   12.37  0. 1.0000     0.      0.00 
 -11  -6   6     27.82   13.81  0. 1.0000     0.      0.00 
 -10  -6   6      0.00   25.65  0. 1.0000     0.      0.00 
  -9  -6   6      0.00   34.23  0. 1.0000     0.      0.00 
  -8  -6   6    536.32   19.52  0. 1.0000     0.      0.00 
  -7  -6   6    174.13    4.76  0. 1.0000     0.      0.00 
  -6  -6   6     34.99    3.13  0. 1.0000     0.      0.00 
  -5  -6   6      9.81    2.32  0. 1.0000     0.      0.00 
  -4  -6   6    357.62    4.14  0. 1.0000     0.      0.00 
  -3  -6   6     64.78    1.95  0. 1.0000     0.      0.00 
  -2  -6   6      7.69    2.39  0. 1.0000     0.      0.00 
  -1  -6   6     87.45    1.96  0. 1.0000     0.      0.00 
   0  -6   6   1412.97   15.20  0. 1.0000     0.      0.00 
   1  -6   6    228.25    4.25  0. 1.0000     0.      0.00 
   2  -6   6   1187.09   13.68  0. 1.0000     0.      0.00 
   3  -6   6    140.53    6.70  0. 1.0000     0.      0.00 
   4  -6   6   1406.83   13.17  0. 1.0000     0.      0.00 
   5  -6   6     30.11    1.81  0. 1.0000     0.      0.00 
   6  -6   6    353.62    3.94  0. 1.0000     0.      0.00 
   7  -6   6     23.89    3.25  0. 1.0000     0.      0.00 
   8  -6   6   1954.39   17.44  0. 1.0000     0.      0.00 
   9  -6   6    238.64    5.98  0. 1.0000     0.      0.00 
  10  -6   6    646.38   10.31  0. 1.0000     0.      0.00 
  11  -6   6     24.48   12.67  0. 1.0000     0.      0.00 
  12  -6   6     68.86   17.31  0. 1.0000     0.      0.00 
  13  -6   6      0.00   37.55  0. 1.0000     0.      0.00 
  14  -6   6    255.72   20.39  0. 1.0000     0.      0.00 
 -11  -5   6     26.73   13.62  0. 1.0000     0.      0.00 
 -10  -5   6     16.46    8.23  0. 1.0000     0.      0.00 
  -9  -5   6     45.92    5.40  0. 1.0000     0.      0.00 
  -8  -5   6   1538.77   17.42  0. 1.0000     0.      0.00 
  -7  -5   6     10.65    2.23  0. 1.0000     0.      0.00 
  -6  -5   6     48.40    2.49  0. 1.0000     0.      0.00 
  -5  -5   6    256.96    4.76  0. 1.0000     0.      0.00 
  -4  -5   6     61.08    4.13  0. 1.0000     0.      0.00 
  -3  -5   6    485.92    8.69  0. 1.0000     0.      0.00 
  -2  -5   6   1763.81   16.26  0. 1.0000     0.      0.00 
  -1  -5   6    634.19    8.71  0. 1.0000     0.      0.00 
   0  -5   6   3472.61   31.84  0. 1.0000     0.      0.00 
   1  -5   6    202.42    2.87  0. 1.0000     0.      0.00 
   2  -5   6    592.05    5.76  0. 1.0000     0.      0.00 
   3  -5   6    155.48    8.14  0. 1.0000     0.      0.00 
   4  -5   6   1611.41   13.59  0. 1.0000     0.      0.00 
   5  -5   6    451.72    4.53  0. 1.0000     0.      0.00 
   6  -5   6    771.97    8.74  0. 1.0000     0.      0.00 
   7  -5   6    335.41    7.09  0. 1.0000     0.      0.00 
   8  -5   6      7.91    3.51  0. 1.0000     0.      0.00 
   9  -5   6     42.78   13.16  0. 1.0000     0.      0.00 
  10  -5   6    534.53   44.69  0. 1.0000     0.      0.00 
  11  -5   6    139.58   11.31  0. 1.0000     0.      0.00 
  12  -5   6     16.89    8.78  0. 1.0000     0.      0.00 
  13  -5   6      5.87    6.57  0. 1.0000     0.      0.00 
  14  -5   6    106.67    7.32  0. 1.0000     0.      0.00 
 -12  -4   6    238.06    9.65  0. 1.0000     0.      0.00 
 -11  -4   6     50.45    5.55  0. 1.0000     0.      0.00 
 -10  -4   6     16.18    3.67  0. 1.0000     0.      0.00 
  -9  -4   6      0.00    3.48  0. 1.0000     0.      0.00 
  -8  -4   6    249.65    4.74  0. 1.0000     0.      0.00 
  -7  -4   6     34.88    3.13  0. 1.0000     0.      0.00 
  -6  -4   6     25.81    2.99  0. 1.0000     0.      0.00 
  -5  -4   6    199.77    5.74  0. 1.0000     0.      0.00 
  -4  -4   6    784.91    9.04  0. 1.0000     0.      0.00 
  -3  -4   6    446.07    4.84  0. 1.0000     0.      0.00 
  -2  -4   6    407.68    5.49  0. 1.0000     0.      0.00 
  -1  -4   6   2197.62   23.65  0. 1.0000     0.      0.00 
   0  -4   6    809.59   11.71  0. 1.0000     0.      0.00 
   1  -4   6   1238.67   10.53  0. 1.0000     0.      0.00 
   2  -4   6     17.71    0.91  0. 1.0000     0.      0.00 
   3  -4   6   2592.88   26.23  0. 1.0000     0.      0.00 
   4  -4   6    153.94   10.60  0. 1.0000     0.      0.00 
   5  -4   6   2570.19   23.34  0. 1.0000     0.      0.00 
   6  -4   6   1465.00   16.77  0. 1.0000     0.      0.00 
   7  -4   6    122.08    4.04  0. 1.0000     0.      0.00 
   8  -4   6    182.44    3.78  0. 1.0000     0.      0.00 
   9  -4   6     27.91    3.02  0. 1.0000     0.      0.00 
  10  -4   6     80.91    3.73  0. 1.0000     0.      0.00 
  11  -4   6   1488.13   20.49  0. 1.0000     0.      0.00 
  12  -4   6      6.48    3.67  0. 1.0000     0.      0.00 
  13  -4   6     56.33    6.07  0. 1.0000     0.      0.00 
  14  -4   6      2.37    9.81  0. 1.0000     0.      0.00 
 -12  -3   6     95.84    6.04  0. 1.0000     0.      0.00 
 -11  -3   6    143.42    6.39  0. 1.0000     0.      0.00 
 -10  -3   6     15.77    7.07  0. 1.0000     0.      0.00 
  -9  -3   6    124.81    6.50  0. 1.0000     0.      0.00 
  -8  -3   6      0.00   13.14  0. 1.0000     0.      0.00 
  -7  -3   6    323.35   12.96  0. 1.0000     0.      0.00 
  -6  -3   6     13.34    3.14  0. 1.0000     0.      0.00 
  -5  -3   6   5326.83   51.62  0. 1.0000     0.      0.00 
  -4  -3   6    403.37    7.77  0. 1.0000     0.      0.00 
  -3  -3   6   1408.22   13.48  0. 1.0000     0.      0.00 
  -2  -3   6      7.93    0.70  0. 1.0000     0.      0.00 
  -1  -3   6   2235.94   20.05  0. 1.0000     0.      0.00 
   0  -3   6    258.66   10.75  0. 1.0000     0.      0.00 
   1  -3   6   2072.59   18.80  0. 1.0000     0.      0.00 
   2  -3   6    187.11    2.56  0. 1.0000     0.      0.00 
   3  -3   6   2595.78   21.67  0. 1.0000     0.      0.00 
   4  -3   6     40.00    0.88  0. 1.0000     0.      0.00 
   5  -3   6    120.99    3.24  0. 1.0000     0.      0.00 
   6  -3   6      1.48    1.60  0. 1.0000     0.      0.00 
   7  -3   6   1054.21   11.63  0. 1.0000     0.      0.00 
   8  -3   6      3.23    1.87  0. 1.0000     0.      0.00 
   9  -3   6     94.03    2.47  0. 1.0000     0.      0.00 
  10  -3   6    168.50    4.45  0. 1.0000     0.      0.00 
  11  -3   6    519.56   11.15  0. 1.0000     0.      0.00 
  12  -3   6     20.47    9.44  0. 1.0000     0.      0.00 
  13  -3   6    126.97   14.89  0. 1.0000     0.      0.00 
  14  -3   6     25.79   31.28  0. 1.0000     0.      0.00 
 -13  -2   6      9.28    9.93  0. 1.0000     0.      0.00 
 -12  -2   6      7.04   10.54  0. 1.0000     0.      0.00 
 -11  -2   6      8.73   20.45  0. 1.0000     0.      0.00 
 -10  -2   6      2.16   21.62  0. 1.0000     0.      0.00 
  -9  -2   6    706.75   12.13  0. 1.0000     0.      0.00 
  -8  -2   6     35.18    3.94  0. 1.0000     0.      0.00 
  -7  -2   6     34.53    2.38  0. 1.0000     0.      0.00 
  -6  -2   6     27.96    2.84  0. 1.0000     0.      0.00 
  -5  -2   6   2942.90   27.09  0. 1.0000     0.      0.00 
  -4  -2   6     20.96    2.43  0. 1.0000     0.      0.00 
  -3  -2   6    515.87    5.16  0. 1.0000     0.      0.00 
  -2  -2   6     43.63    1.65  0. 1.0000     0.      0.00 
  -1  -2   6   2064.25   17.66  0. 1.0000     0.      0.00 
   0  -2   6   2714.65   22.31  0. 1.0000     0.      0.00 
   1  -2   6   4671.24   42.63  0. 1.0000     0.      0.00 
   2  -2   6    569.91    5.49  0. 1.0000     0.      0.00 
   3  -2   6    316.83    4.48  0. 1.0000     0.      0.00 
   4  -2   6    809.15    8.65  0. 1.0000     0.      0.00 
   5  -2   6     87.50    1.94  0. 1.0000     0.      0.00 
   6  -2   6   2683.90   25.34  0. 1.0000     0.      0.00 
   7  -2   6   1492.18   19.20  0. 1.0000     0.      0.00 
   8  -2   6    252.77    4.40  0. 1.0000     0.      0.00 
   9  -2   6    488.56    7.59  0. 1.0000     0.      0.00 
  10  -2   6     59.74    6.49  0. 1.0000     0.      0.00 
  11  -2   6     90.95   21.32  0. 1.0000     0.      0.00 
  12  -2   6     59.26   34.33  0. 1.0000     0.      0.00 
  13  -2   6    222.21   19.38  0. 1.0000     0.      0.00 
  14  -2   6    139.80   10.90  0. 1.0000     0.      0.00 
 -13  -1   6     39.81   34.84  0. 1.0000     0.      0.00 
 -12  -1   6     28.04   11.40  0. 1.0000     0.      0.00 
 -11  -1   6      9.34    7.82  0. 1.0000     0.      0.00 
 -10  -1   6    380.63    7.33  0. 1.0000     0.      0.00 
  -9  -1   6   1800.22   22.04  0. 1.0000     0.      0.00 
  -8  -1   6     25.29    1.91  0. 1.0000     0.      0.00 
  -7  -1   6     92.34    2.16  0. 1.0000     0.      0.00 
  -6  -1   6    177.74    2.83  0. 1.0000     0.      0.00 
  -5  -1   6     89.76    3.13  0. 1.0000     0.      0.00 
  -4  -1   6   1463.23   16.84  0. 1.0000     0.      0.00 
  -3  -1   6   1351.40   12.14  0. 1.0000     0.      0.00 
  -2  -1   6   3930.33   32.05  0. 1.0000     0.      0.00 
  -1  -1   6    882.88    8.57  0. 1.0000     0.      0.00 
   0  -1   6    251.36    4.12  0. 1.0000     0.      0.00 
   1  -1   6     47.69    1.91  0. 1.0000     0.      0.00 
   2  -1   6   3814.19   38.47  0. 1.0000     0.      0.00 
   3  -1   6     75.80    1.24  0. 1.0000     0.      0.00 
   4  -1   6     34.24    2.11  0. 1.0000     0.      0.00 
   5  -1   6    260.68    2.91  0. 1.0000     0.      0.00 
   6  -1   6   3235.59   41.14  0. 1.0000     0.      0.00 
   7  -1   6      4.96    1.97  0. 1.0000     0.      0.00 
   8  -1   6    381.91   11.20  0. 1.0000     0.      0.00 
   9  -1   6    169.46   17.21  0. 1.0000     0.      0.00 
  10  -1   6     35.63    5.56  0. 1.0000     0.      0.00 
  11  -1   6     46.75    6.82  0. 1.0000     0.      0.00 
  12  -1   6    116.09    6.05  0. 1.0000     0.      0.00 
  13  -1   6      5.52    5.64  0. 1.0000     0.      0.00 
 -13   0   6     44.37    8.02  0. 1.0000     0.      0.00 
 -12   0   6     56.37    5.39  0. 1.0000     0.      0.00 
 -11   0   6      9.80    3.56  0. 1.0000     0.      0.00 
 -10   0   6    305.27    5.08  0. 1.0000     0.      0.00 
  -9   0   6     91.14    7.33  0. 1.0000     0.      0.00 
  -8   0   6     59.25    2.82  0. 1.0000     0.      0.00 
  -7   0   6      0.55    1.61  0. 1.0000     0.      0.00 
  -6   0   6    234.20    4.24  0. 1.0000     0.      0.00 
  -5   0   6     15.88    0.82  0. 1.0000     0.      0.00 
  -4   0   6   2471.07   29.12  0. 1.0000     0.      0.00 
  -3   0   6    339.70    4.19  0. 1.0000     0.      0.00 
  -2   0   6   7382.08   91.36  0. 1.0000     0.      0.00 
  -1   0   6     27.01    0.80  0. 1.0000     0.      0.00 
   0   0   6   6731.18   73.61  0. 1.0000     0.      0.00 
   1   0   6     75.04    1.05  0. 1.0000     0.      0.00 
   2   0   6   9356.01   92.67  0. 1.0000     0.      0.00 
   3   0   6    332.81    4.06  0. 1.0000     0.      0.00 
   4   0   6   3045.24   28.78  0. 1.0000     0.      0.00 
   5   0   6     90.68    1.46  0. 1.0000     0.      0.00 
   6   0   6     29.38    1.22  0. 1.0000     0.      0.00 
   7   0   6     38.28    2.09  0. 1.0000     0.      0.00 
   8   0   6    180.24    3.73  0. 1.0000     0.      0.00 
   9   0   6    260.90    4.77  0. 1.0000     0.      0.00 
  10   0   6    611.54    7.97  0. 1.0000     0.      0.00 
  11   0   6      0.13    3.74  0. 1.0000     0.      0.00 
  12   0   6     86.95    6.00  0. 1.0000     0.      0.00 
  13   0   6    134.12   10.01  0. 1.0000     0.      0.00 
 -13   1   6      0.00    5.93  0. 1.0000     0.      0.00 
 -12   1   6     74.77    5.90  0. 1.0000     0.      0.00 
 -11   1   6     85.83    6.62  0. 1.0000     0.      0.00 
 -10   1   6     10.86    5.20  0. 1.0000     0.      0.00 
  -9   1   6    250.23   45.81  0. 1.0000     0.      0.00 
  -8   1   6    377.87   11.99  0. 1.0000     0.      0.00 
  -7   1   6     51.83    2.24  0. 1.0000     0.      0.00 
  -6   1   6   4127.47   44.28  0. 1.0000     0.      0.00 
  -5   1   6      1.90    1.38  0. 1.0000     0.      0.00 
  -4   1   6    575.76    5.37  0. 1.0000     0.      0.00 
  -3   1   6    107.12    1.27  0. 1.0000     0.      0.00 
  -2   1   6   2399.07   30.00  0. 1.0000     0.      0.00 
  -1   1   6    486.31    4.49  0. 1.0000     0.      0.00 
   0   1   6    569.94    5.99  0. 1.0000     0.      0.00 
   1   1   6    473.63    4.89  0. 1.0000     0.      0.00 
   2   1   6   2163.90   18.95  0. 1.0000     0.      0.00 
   3   1   6    679.88    6.53  0. 1.0000     0.      0.00 
   4   1   6   1071.68   11.01  0. 1.0000     0.      0.00 
   5   1   6    738.88    7.36  0. 1.0000     0.      0.00 
   6   1   6     25.61    1.44  0. 1.0000     0.      0.00 
   7   1   6    105.40    2.46  0. 1.0000     0.      0.00 
   8   1   6    231.05    3.80  0. 1.0000     0.      0.00 
   9   1   6   2017.75   24.23  0. 1.0000     0.      0.00 
  10   1   6    223.66    5.30  0. 1.0000     0.      0.00 
  11   1   6      7.91    8.89  0. 1.0000     0.      0.00 
  12   1   6      6.92   16.11  0. 1.0000     0.      0.00 
  13   1   6     29.86   31.73  0. 1.0000     0.      0.00 
 -14   2   6     30.85   10.48  0. 1.0000     0.      0.00 
 -13   2   6     65.28   11.46  0. 1.0000     0.      0.00 
 -11   2   6     18.86   32.92  0. 1.0000     0.      0.00 
 -10   2   6     94.26    6.29  0. 1.0000     0.      0.00 
  -9   2   6    241.61    5.60  0. 1.0000     0.      0.00 
  -8   2   6    218.96    4.20  0. 1.0000     0.      0.00 
  -7   2   6   1250.83   16.10  0. 1.0000     0.      0.00 
  -6   2   6   1637.41   19.62  0. 1.0000     0.      0.00 
  -5   2   6    285.70    3.20  0. 1.0000     0.      0.00 
  -4   2   6    607.93    7.79  0. 1.0000     0.      0.00 
  -3   2   6    719.81    7.47  0. 1.0000     0.      0.00 
  -2   2   6    481.03    4.75  0. 1.0000     0.      0.00 
  -1   2   6   4205.38   37.91  0. 1.0000     0.      0.00 
   0   2   6   3031.75   26.63  0. 1.0000     0.      0.00 
   1   2   6   2319.29   19.75  0. 1.0000     0.      0.00 
   2   2   6    162.88    2.06  0. 1.0000     0.      0.00 
   3   2   6    923.35    8.66  0. 1.0000     0.      0.00 
   4   2   6      3.17    1.07  0. 1.0000     0.      0.00 
   5   2   6   5459.67   46.19  0. 1.0000     0.      0.00 
   6   2   6    109.16    2.62  0. 1.0000     0.      0.00 
   7   2   6     71.62    2.54  0. 1.0000     0.      0.00 
   8   2   6     38.08    3.57  0. 1.0000     0.      0.00 
   9   2   6    399.75   10.99  0. 1.0000     0.      0.00 
  10   2   6     27.69   25.77  0. 1.0000     0.      0.00 
  11   2   6    145.89   41.27  0. 1.0000     0.      0.00 
  12   2   6      8.28   16.12  0. 1.0000     0.      0.00 
  13   2   6     33.90   10.11  0. 1.0000     0.      0.00 
 -14   3   6      0.00   22.66  0. 1.0000     0.      0.00 
 -13   3   6     27.72   12.62  0. 1.0000     0.      0.00 
 -12   3   6     16.89    7.58  0. 1.0000     0.      0.00 
 -11   3   6    931.03   14.69  0. 1.0000     0.      0.00 
 -10   3   6    181.34    4.38  0. 1.0000     0.      0.00 
  -9   3   6      5.80    1.98  0. 1.0000     0.      0.00 
  -8   3   6     30.07    1.68  0. 1.0000     0.      0.00 
  -7   3   6    378.15    7.15  0. 1.0000     0.      0.00 
  -6   3   6    120.72    2.04  0. 1.0000     0.      0.00 
  -5   3   6    635.31    6.36  0. 1.0000     0.      0.00 
  -4   3   6    209.66    2.35  0. 1.0000     0.      0.00 
  -3   3   6   3220.58   27.25  0. 1.0000     0.      0.00 
  -2   3   6     44.84    1.05  0. 1.0000     0.      0.00 
  -1   3   6    347.77    4.47  0. 1.0000     0.      0.00 
   0   3   6      0.00    1.69  0. 1.0000     0.      0.00 
   1   3   6   2657.11   25.03  0. 1.0000     0.      0.00 
   2   3   6     34.23    1.30  0. 1.0000     0.      0.00 
   3   3   6    379.94    4.19  0. 1.0000     0.      0.00 
   4   3   6    229.10    3.12  0. 1.0000     0.      0.00 
   5   3   6   4129.64   42.79  0. 1.0000     0.      0.00 
   6   3   6     81.35    5.49  0. 1.0000     0.      0.00 
   7   3   6    364.34   19.55  0. 1.0000     0.      0.00 
   8   3   6     24.03   20.38  0. 1.0000     0.      0.00 
   9   3   6     57.49    6.45  0. 1.0000     0.      0.00 
  10   3   6     13.90    6.75  0. 1.0000     0.      0.00 
  11   3   6    372.02    8.66  0. 1.0000     0.      0.00 
  12   3   6    155.23    6.65  0. 1.0000     0.      0.00 
 -14   4   6     12.29    9.67  0. 1.0000     0.      0.00 
 -13   4   6     35.81    5.13  0. 1.0000     0.      0.00 
 -12   4   6      2.82    4.02  0. 1.0000     0.      0.00 
 -11   4   6   1091.22   16.82  0. 1.0000     0.      0.00 
 -10   4   6     54.60    3.76  0. 1.0000     0.      0.00 
  -9   4   6     84.53    3.16  0. 1.0000     0.      0.00 
  -8   4   6     79.54    3.19  0. 1.0000     0.      0.00 
  -7   4   6    213.34    5.86  0. 1.0000     0.      0.00 
  -6   4   6   1300.31   17.23  0. 1.0000     0.      0.00 
  -5   4   6   2687.88   24.59  0. 1.0000     0.      0.00 
  -4   4   6    133.13    5.08  0. 1.0000     0.      0.00 
  -3   4   6   1818.67   16.49  0. 1.0000     0.      0.00 
  -2   4   6    176.49    2.20  0. 1.0000     0.      0.00 
  -1   4   6   1624.41   13.58  0. 1.0000     0.      0.00 
   0   4   6   1765.25   16.16  0. 1.0000     0.      0.00 
   1   4   6   3123.53   27.88  0. 1.0000     0.      0.00 
   2   4   6    443.71    6.19  0. 1.0000     0.      0.00 
   3   4   6   1134.16   12.31  0. 1.0000     0.      0.00 
   4   4   6    506.09    7.09  0. 1.0000     0.      0.00 
   5   4   6      1.51    3.70  0. 1.0000     0.      0.00 
   6   4   6     39.27    2.76  0. 1.0000     0.      0.00 
   7   4   6    225.53    6.25  0. 1.0000     0.      0.00 
   8   4   6    696.21    8.84  0. 1.0000     0.      0.00 
   9   4   6     11.09    3.81  0. 1.0000     0.      0.00 
  10   4   6      8.31    3.84  0. 1.0000     0.      0.00 
  11   4   6     35.28    6.34  0. 1.0000     0.      0.00 
  12   4   6    355.58   13.53  0. 1.0000     0.      0.00 
 -14   5   6     77.17    7.08  0. 1.0000     0.      0.00 
 -13   5   6     19.47    6.45  0. 1.0000     0.      0.00 
 -12   5   6     53.10    7.13  0. 1.0000     0.      0.00 
 -11   5   6      0.00    8.29  0. 1.0000     0.      0.00 
 -10   5   6    576.36   41.09  0. 1.0000     0.      0.00 
  -9   5   6    111.89   10.76  0. 1.0000     0.      0.00 
  -8   5   6    208.64    3.93  0. 1.0000     0.      0.00 
  -7   5   6    616.81    7.96  0. 1.0000     0.      0.00 
  -6   5   6     63.96    5.08  0. 1.0000     0.      0.00 
  -5   5   6     71.43    1.85  0. 1.0000     0.      0.00 
  -4   5   6   1810.33   13.90  0. 1.0000     0.      0.00 
  -3   5   6     24.17    1.36  0. 1.0000     0.      0.00 
  -2   5   6    135.25    1.97  0. 1.0000     0.      0.00 
  -1   5   6     69.40    1.55  0. 1.0000     0.      0.00 
   0   5   6   3395.08   30.45  0. 1.0000     0.      0.00 
   1   5   6    203.04    3.09  0. 1.0000     0.      0.00 
   2   5   6   1045.57   10.95  0. 1.0000     0.      0.00 
   3   5   6    412.73   11.78  0. 1.0000     0.      0.00 
   4   5   6    308.23    3.80  0. 1.0000     0.      0.00 
   5   5   6    285.61    5.41  0. 1.0000     0.      0.00 
   6   5   6     10.99    2.53  0. 1.0000     0.      0.00 
   7   5   6      6.91    2.14  0. 1.0000     0.      0.00 
   8   5   6   1938.89   22.42  0. 1.0000     0.      0.00 
   9   5   6     25.64    6.10  0. 1.0000     0.      0.00 
  10   5   6      9.19   11.62  0. 1.0000     0.      0.00 
  11   5   6     24.83   19.87  0. 1.0000     0.      0.00 
 -14   6   6    155.74   28.37  0. 1.0000     0.      0.00 
 -13   6   6      8.18   40.79  0. 1.0000     0.      0.00 
 -12   6   6     19.46   30.66  0. 1.0000     0.      0.00 
 -11   6   6     27.41    7.33  0. 1.0000     0.      0.00 
 -10   6   6    441.26    7.67  0. 1.0000     0.      0.00 
  -9   6   6    278.29    6.76  0. 1.0000     0.      0.00 
  -8   6   6   2034.45   18.45  0. 1.0000     0.      0.00 
  -7   6   6      4.55    1.69  0. 1.0000     0.      0.00 
  -6   6   6    799.71    8.07  0. 1.0000     0.      0.00 
  -5   6   6     25.03    2.24  0. 1.0000     0.      0.00 
  -4   6   6   1961.74   18.28  0. 1.0000     0.      0.00 
  -3   6   6    221.46    5.78  0. 1.0000     0.      0.00 
  -2   6   6   1736.68   16.58  0. 1.0000     0.      0.00 
  -1   6   6    300.89    4.29  0. 1.0000     0.      0.00 
   0   6   6    936.64    9.25  0. 1.0000     0.      0.00 
   1   6   6    183.13    6.15  0. 1.0000     0.      0.00 
   2   6   6     27.84    1.81  0. 1.0000     0.      0.00 
   3   6   6    377.09    5.52  0. 1.0000     0.      0.00 
   4   6   6   1383.52   13.69  0. 1.0000     0.      0.00 
   5   6   6      7.57    2.24  0. 1.0000     0.      0.00 
   6   6   6     90.71    3.44  0. 1.0000     0.      0.00 
   7   6   6    263.88    5.91  0. 1.0000     0.      0.00 
   8   6   6    290.71   23.09  0. 1.0000     0.      0.00 
   9   6   6      0.00   33.07  0. 1.0000     0.      0.00 
  10   6   6     80.08   48.85  0. 1.0000     0.      0.00 
  11   6   6     40.58   14.70  0. 1.0000     0.      0.00 
 -13   7   6     16.83   12.89  0. 1.0000     0.      0.00 
 -12   7   6    408.43   11.73  0. 1.0000     0.      0.00 
 -11   7   6     10.84    5.01  0. 1.0000     0.      0.00 
 -10   7   6      7.09    2.44  0. 1.0000     0.      0.00 
  -9   7   6      0.00    2.16  0. 1.0000     0.      0.00 
  -8   7   6    771.11    9.54  0. 1.0000     0.      0.00 
  -7   7   6    468.51    5.88  0. 1.0000     0.      0.00 
  -6   7   6     14.23    2.59  0. 1.0000     0.      0.00 
  -5   7   6      0.00    3.99  0. 1.0000     0.      0.00 
  -4   7   6   1064.44   14.80  0. 1.0000     0.      0.00 
  -3   7   6    754.54   10.16  0. 1.0000     0.      0.00 
  -2   7   6   1145.65   12.05  0. 1.0000     0.      0.00 
  -1   7   6    371.85    8.90  0. 1.0000     0.      0.00 
   0   7   6      6.11    1.96  0. 1.0000     0.      0.00 
   1   7   6     61.03    2.12  0. 1.0000     0.      0.00 
   2   7   6     11.77    2.27  0. 1.0000     0.      0.00 
   3   7   6   1941.02   21.43  0. 1.0000     0.      0.00 
   4   7   6   1042.06   11.51  0. 1.0000     0.      0.00 
   5   7   6     12.15    6.28  0. 1.0000     0.      0.00 
   6   7   6    159.75   37.73  0. 1.0000     0.      0.00 
   8   7   6    110.80   11.01  0. 1.0000     0.      0.00 
   9   7   6     26.80    9.39  0. 1.0000     0.      0.00 
  10   7   6     84.32    9.24  0. 1.0000     0.      0.00 
 -13   8   6     37.85    6.00  0. 1.0000     0.      0.00 
 -12   8   6    348.86    7.08  0. 1.0000     0.      0.00 
 -11   8   6     55.31    7.27  0. 1.0000     0.      0.00 
 -10   8   6     52.78    4.75  0. 1.0000     0.      0.00 
  -9   8   6      4.99    5.80  0. 1.0000     0.      0.00 
  -8   8   6     22.34   19.21  0. 1.0000     0.      0.00 
  -7   8   6   1414.58   41.23  0. 1.0000     0.      0.00 
  -6   8   6    916.12   10.75  0. 1.0000     0.      0.00 
  -5   8   6    485.45    6.54  0. 1.0000     0.      0.00 
  -4   8   6     11.13    2.27  0. 1.0000     0.      0.00 
  -3   8   6    108.28    2.48  0. 1.0000     0.      0.00 
  -2   8   6     25.78    1.66  0. 1.0000     0.      0.00 
  -1   8   6   2388.56   25.44  0. 1.0000     0.      0.00 
   0   8   6     13.91    2.37  0. 1.0000     0.      0.00 
   1   8   6     14.89    2.71  0. 1.0000     0.      0.00 
   2   8   6    213.91    4.74  0. 1.0000     0.      0.00 
   3   8   6    987.91   78.77  0. 1.0000     0.      0.00 
   5   8   6     65.06    7.37  0. 1.0000     0.      0.00 
   6   8   6     10.01    6.13  0. 1.0000     0.      0.00 
   7   8   6    116.82    7.28  0. 1.0000     0.      0.00 
   8   8   6      3.84    6.35  0. 1.0000     0.      0.00 
   9   8   6     26.62    6.64  0. 1.0000     0.      0.00 
 -13   9   6     28.83   13.09  0. 1.0000     0.      0.00 
 -12   9   6      0.57   21.21  0. 1.0000     0.      0.00 
 -11   9   6    253.01   53.04  0. 1.0000     0.      0.00 
 -10   9   6     14.37   10.69  0. 1.0000     0.      0.00 
  -9   9   6    131.15    8.45  0. 1.0000     0.      0.00 
  -8   9   6      3.63    4.41  0. 1.0000     0.      0.00 
  -7   9   6    327.87    5.82  0. 1.0000     0.      0.00 
  -6   9   6     96.50    3.21  0. 1.0000     0.      0.00 
  -5   9   6   1015.83   10.44  0. 1.0000     0.      0.00 
  -4   9   6    176.02    3.51  0. 1.0000     0.      0.00 
  -3   9   6    430.51    5.89  0. 1.0000     0.      0.00 
  -2   9   6     27.86    2.89  0. 1.0000     0.      0.00 
  -1   9   6   2647.34   30.48  0. 1.0000     0.      0.00 
   0   9   6     57.73   21.70  0. 1.0000     0.      0.00 
   1   9   6    546.45   37.40  0. 1.0000     0.      0.00 
   2   9   6      0.00    5.82  0. 1.0000     0.      0.00 
   3   9   6     13.05    3.49  0. 1.0000     0.      0.00 
   4   9   6     83.91    4.18  0. 1.0000     0.      0.00 
   5   9   6     59.97    5.77  0. 1.0000     0.      0.00 
   6   9   6    200.51    7.93  0. 1.0000     0.      0.00 
   7   9   6    366.60    9.15  0. 1.0000     0.      0.00 
   8   9   6     15.15    8.66  0. 1.0000     0.      0.00 
 -12  10   6    158.21   21.41  0. 1.0000     0.      0.00 
 -11  10   6    327.45   12.60  0. 1.0000     0.      0.00 
 -10  10   6     11.74    9.36  0. 1.0000     0.      0.00 
  -9  10   6    465.94    8.55  0. 1.0000     0.      0.00 
  -8  10   6     38.26    2.56  0. 1.0000     0.      0.00 
  -7  10   6    138.27    3.76  0. 1.0000     0.      0.00 
  -6  10   6     88.64    3.99  0. 1.0000     0.      0.00 
  -5  10   6    498.76    7.96  0. 1.0000     0.      0.00 
  -4  10   6    387.99    9.48  0. 1.0000     0.      0.00 
  -3  10   6    397.86   52.73  0. 1.0000     0.      0.00 
  -2  10   6      8.37   19.15  0. 1.0000     0.      0.00 
  -1  10   6     90.04    6.59  0. 1.0000     0.      0.00 
   0  10   6    170.15    4.43  0. 1.0000     0.      0.00 
   1  10   6     51.96    3.47  0. 1.0000     0.      0.00 
   2  10   6    461.37    7.35  0. 1.0000     0.      0.00 
   3  10   6      3.56    2.86  0. 1.0000     0.      0.00 
   4  10   6     15.42    5.35  0. 1.0000     0.      0.00 
   5  10   6     60.63    7.90  0. 1.0000     0.      0.00 
   6  10   6    654.62   17.54  0. 1.0000     0.      0.00 
   7  10   6     14.10   23.99  0. 1.0000     0.      0.00 
 -11  11   6     69.18    6.00  0. 1.0000     0.      0.00 
 -10  11   6    147.31    5.39  0. 1.0000     0.      0.00 
  -9  11   6     17.70    6.98  0. 1.0000     0.      0.00 
  -8  11   6     34.44    8.19  0. 1.0000     0.      0.00 
  -7  11   6     12.03   12.53  0. 1.0000     0.      0.00 
  -6  11   6    380.64   63.95  0. 1.0000     0.      0.00 
  -5  11   6      0.00   34.50  0. 1.0000     0.      0.00 
  -4  11   6    660.77   15.00  0. 1.0000     0.      0.00 
  -3  11   6    381.69    7.11  0. 1.0000     0.      0.00 
  -2  11   6    198.08    6.05  0. 1.0000     0.      0.00 
  -1  11   6    232.02    4.75  0. 1.0000     0.      0.00 
   0  11   6     24.51    3.12  0. 1.0000     0.      0.00 
   1  11   6      0.00    5.19  0. 1.0000     0.      0.00 
   2  11   6   1402.82   19.78  0. 1.0000     0.      0.00 
   3  11   6     39.08    7.92  0. 1.0000     0.      0.00 
   4  11   6      5.75   15.41  0. 1.0000     0.      0.00 
   5  11   6     10.27   36.04  0. 1.0000     0.      0.00 
   6  11   6     57.71   50.72  0. 1.0000     0.      0.00 
 -10  12   6     69.26   33.69  0. 1.0000     0.      0.00 
  -8  12   6    377.81   42.13  0. 1.0000     0.      0.00 
  -7  12   6    176.61   20.23  0. 1.0000     0.      0.00 
  -6  12   6    237.61   11.03  0. 1.0000     0.      0.00 
  -5  12   6     68.46    6.12  0. 1.0000     0.      0.00 
  -4  12   6     12.09    5.00  0. 1.0000     0.      0.00 
  -3  12   6     25.43    3.64  0. 1.0000     0.      0.00 
  -2  12   6    413.03    8.92  0. 1.0000     0.      0.00 
  -1  12   6     23.17    6.09  0. 1.0000     0.      0.00 
   0  12   6      0.00    8.06  0. 1.0000     0.      0.00 
   1  12   6      0.00   16.60  0. 1.0000     0.      0.00 
   4  12   6     12.43   19.06  0. 1.0000     0.      0.00 
   5  12   6     31.53   11.43  0. 1.0000     0.      0.00 
  -9  13   6    158.61   13.52  0. 1.0000     0.      0.00 
  -8  13   6    312.66   12.46  0. 1.0000     0.      0.00 
  -7  13   6      0.00    5.74  0. 1.0000     0.      0.00 
  -6  13   6     22.59    4.34  0. 1.0000     0.      0.00 
  -5  13   6     29.55    4.71  0. 1.0000     0.      0.00 
  -4  13   6     33.19    6.21  0. 1.0000     0.      0.00 
  -3  13   6    237.17   12.18  0. 1.0000     0.      0.00 
  -2  13   6    344.02   47.69  0. 1.0000     0.      0.00 
   1  13   6     63.32   15.29  0. 1.0000     0.      0.00 
   2  13   6     18.90   10.37  0. 1.0000     0.      0.00 
   3  13   6     24.71    8.56  0. 1.0000     0.      0.00 
  -7  14   6    226.11   13.19  0. 1.0000     0.      0.00 
  -6  14   6      0.79   17.62  0. 1.0000     0.      0.00 
  -3  14   6    199.35   34.91  0. 1.0000     0.      0.00 
  -2  14   6      4.61   14.82  0. 1.0000     0.      0.00 
  -1  14   6     87.86   12.40  0. 1.0000     0.      0.00 
   0  14   6     18.04    8.15  0. 1.0000     0.      0.00 
   1  14   6     96.55   23.77  0. 1.0000     0.      0.00 
   3 -15   7      0.00   14.83  0. 1.0000     0.      0.00 
   4 -15   7     17.65   15.34  0. 1.0000     0.      0.00 
  -1 -14   7     55.68    5.82  0. 1.0000     0.      0.00 
   0 -14   7     10.43    6.89  0. 1.0000     0.      0.00 
   1 -14   7     31.27    8.41  0. 1.0000     0.      0.00 
   2 -14   7     40.49   12.95  0. 1.0000     0.      0.00 
   3 -14   7      6.10   31.34  0. 1.0000     0.      0.00 
   5 -14   7     11.32   17.53  0. 1.0000     0.      0.00 
   6 -14   7     26.62   10.51  0. 1.0000     0.      0.00 
   7 -14   7     56.78    7.75  0. 1.0000     0.      0.00 
   8 -14   7     22.13    6.53  0. 1.0000     0.      0.00 
  -3 -13   7      3.17    7.65  0. 1.0000     0.      0.00 
  -2 -13   7      5.68    8.43  0. 1.0000     0.      0.00 
  -1 -13   7     25.47   11.48  0. 1.0000     0.      0.00 
   0 -13   7      0.00   35.63  0. 1.0000     0.      0.00 
   2 -13   7     44.54   13.99  0. 1.0000     0.      0.00 
   3 -13   7     11.70    6.73  0. 1.0000     0.      0.00 
   4 -13   7      0.00    5.47  0. 1.0000     0.      0.00 
   5 -13   7      0.01    4.67  0. 1.0000     0.      0.00 
   6 -13   7     18.60    3.97  0. 1.0000     0.      0.00 
   7 -13   7     13.34    5.76  0. 1.0000     0.      0.00 
   8 -13   7      1.41    8.44  0. 1.0000     0.      0.00 
   9 -13   7    219.10   13.97  0. 1.0000     0.      0.00 
  10 -13   7     10.56   20.64  0. 1.0000     0.      0.00 
  -5 -12   7     37.51   10.77  0. 1.0000     0.      0.00 
  -4 -12   7     44.91   14.11  0. 1.0000     0.      0.00 
  -1 -12   7      7.63   14.94  0. 1.0000     0.      0.00 
   0 -12   7      7.67    6.51  0. 1.0000     0.      0.00 
   1 -12   7     15.25    6.20  0. 1.0000     0.      0.00 
   2 -12   7    137.30    7.92  0. 1.0000     0.      0.00 
   3 -12   7      5.62    3.63  0. 1.0000     0.      0.00 
   4 -12   7     76.56    7.72  0. 1.0000     0.      0.00 
   5 -12   7    221.27    7.53  0. 1.0000     0.      0.00 
   6 -12   7      9.89    8.71  0. 1.0000     0.      0.00 
   7 -12   7     85.32   12.41  0. 1.0000     0.      0.00 
   8 -12   7      0.00   34.40  0. 1.0000     0.      0.00 
   9 -12   7      7.03   42.04  0. 1.0000     0.      0.00 
  10 -12   7     15.27   22.36  0. 1.0000     0.      0.00 
  11 -12   7      5.70   13.47  0. 1.0000     0.      0.00 
  -6 -11   7     17.19   52.67  0. 1.0000     0.      0.00 
  -5 -11   7      0.00   60.85  0. 1.0000     0.      0.00 
  -4 -11   7      8.51   16.76  0. 1.0000     0.      0.00 
  -3 -11   7    119.27    7.82  0. 1.0000     0.      0.00 
  -2 -11   7      5.84    5.80  0. 1.0000     0.      0.00 
  -1 -11   7      1.90    3.88  0. 1.0000     0.      0.00 
   0 -11   7      6.46    2.32  0. 1.0000     0.      0.00 
   1 -11   7      0.16    3.20  0. 1.0000     0.      0.00 
   2 -11   7     38.29    4.65  0. 1.0000     0.      0.00 
   3 -11   7    170.91    5.89  0. 1.0000     0.      0.00 
   4 -11   7    408.69    9.91  0. 1.0000     0.      0.00 
   5 -11   7    137.11   18.23  0. 1.0000     0.      0.00 
   6 -11   7     52.66   21.32  0. 1.0000     0.      0.00 
   7 -11   7      0.00   11.59  0. 1.0000     0.      0.00 
   8 -11   7      7.71    9.60  0. 1.0000     0.      0.00 
   9 -11   7     50.49    8.18  0. 1.0000     0.      0.00 
  10 -11   7     26.48    5.45  0. 1.0000     0.      0.00 
  11 -11   7     34.11    5.07  0. 1.0000     0.      0.00 
  12 -11   7     87.73   18.74  0. 1.0000     0.      0.00 
  -7 -10   7     21.58   24.91  0. 1.0000     0.      0.00 
  -6 -10   7     22.43    7.80  0. 1.0000     0.      0.00 
  -5 -10   7     10.87    6.72  0. 1.0000     0.      0.00 
  -4 -10   7     29.80    5.65  0. 1.0000     0.      0.00 
  -3 -10   7      4.94    2.70  0. 1.0000     0.      0.00 
  -2 -10   7    276.82    4.76  0. 1.0000     0.      0.00 
  -1 -10   7     35.38    3.55  0. 1.0000     0.      0.00 
   0 -10   7    348.72    6.33  0. 1.0000     0.      0.00 
   1 -10   7      7.64    4.74  0. 1.0000     0.      0.00 
   2 -10   7      0.00   12.64  0. 1.0000     0.      0.00 
   3 -10   7     97.97   23.99  0. 1.0000     0.      0.00 
   4 -10   7    118.03    6.47  0. 1.0000     0.      0.00 
   5 -10   7    178.18    5.90  0. 1.0000     0.      0.00 
   6 -10   7     25.98    3.84  0. 1.0000     0.      0.00 
   7 -10   7     11.60    3.14  0. 1.0000     0.      0.00 
   8 -10   7    175.46    4.08  0. 1.0000     0.      0.00 
   9 -10   7     48.99    5.62  0. 1.0000     0.      0.00 
  10 -10   7    211.22    9.19  0. 1.0000     0.      0.00 
  11 -10   7     11.91    9.23  0. 1.0000     0.      0.00 
  12 -10   7      1.56   16.87  0. 1.0000     0.      0.00 
  -8  -9   7     62.35    8.61  0. 1.0000     0.      0.00 
  -7  -9   7      8.31    6.42  0. 1.0000     0.      0.00 
  -6  -9   7      3.30    4.13  0. 1.0000     0.      0.00 
  -5  -9   7     18.46    5.09  0. 1.0000     0.      0.00 
  -4  -9   7      5.45    4.19  0. 1.0000     0.      0.00 
  -3  -9   7      4.69    4.02  0. 1.0000     0.      0.00 
  -2  -9   7      8.93    6.99  0. 1.0000     0.      0.00 
  -1  -9   7     31.16   15.19  0. 1.0000     0.      0.00 
   0  -9   7   1354.91   60.21  0. 1.0000     0.      0.00 
   1  -9   7     14.69    3.48  0. 1.0000     0.      0.00 
   2  -9   7      3.51    3.00  0. 1.0000     0.      0.00 
   3  -9   7      3.75    2.67  0. 1.0000     0.      0.00 
   4  -9   7      0.00    2.36  0. 1.0000     0.      0.00 
   5  -9   7    126.31    3.02  0. 1.0000     0.      0.00 
   6  -9   7    505.72    7.49  0. 1.0000     0.      0.00 
   7  -9   7    282.74    4.99  0. 1.0000     0.      0.00 
   8  -9   7    271.56    7.42  0. 1.0000     0.      0.00 
   9  -9   7     48.34    8.78  0. 1.0000     0.      0.00 
  10  -9   7      0.00   38.61  0. 1.0000     0.      0.00 
  12  -9   7     60.78   16.17  0. 1.0000     0.      0.00 
  13  -9   7      0.00   14.44  0. 1.0000     0.      0.00 
  -9  -8   7      6.94    5.42  0. 1.0000     0.      0.00 
  -8  -8   7      0.00    6.51  0. 1.0000     0.      0.00 
  -7  -8   7     13.63    5.96  0. 1.0000     0.      0.00 
  -6  -8   7      1.29    5.69  0. 1.0000     0.      0.00 
  -5  -8   7      3.89    5.65  0. 1.0000     0.      0.00 
  -4  -8   7    123.54   15.98  0. 1.0000     0.      0.00 
  -3  -8   7    118.59   20.33  0. 1.0000     0.      0.00 
  -2  -8   7    218.11    4.48  0. 1.0000     0.      0.00 
  -1  -8   7     12.56    2.70  0. 1.0000     0.      0.00 
   0  -8   7    170.87    4.98  0. 1.0000     0.      0.00 
   1  -8   7    296.23    4.01  0. 1.0000     0.      0.00 
   2  -8   7      4.97    1.52  0. 1.0000     0.      0.00 
   3  -8   7    378.32    4.66  0. 1.0000     0.      0.00 
   4  -8   7     82.59    4.60  0. 1.0000     0.      0.00 
   5  -8   7      0.00    2.78  0. 1.0000     0.      0.00 
   6  -8   7    480.30    7.75  0. 1.0000     0.      0.00 
   7  -8   7    363.44   17.09  0. 1.0000     0.      0.00 
   8  -8   7     41.28   42.01  0. 1.0000     0.      0.00 
   9  -8   7    166.55    8.23  0. 1.0000     0.      0.00 
  10  -8   7     27.28    5.80  0. 1.0000     0.      0.00 
  11  -8   7     87.60    7.93  0. 1.0000     0.      0.00 
  12  -8   7    196.71    7.10  0. 1.0000     0.      0.00 
  13  -8   7    183.20    6.48  0. 1.0000     0.      0.00 
 -10  -7   7     17.66    8.39  0. 1.0000     0.      0.00 
  -9  -7   7     14.92    8.02  0. 1.0000     0.      0.00 
  -8  -7   7      7.43   10.74  0. 1.0000     0.      0.00 
  -7  -7   7      0.00   20.86  0. 1.0000     0.      0.00 
  -6  -7   7     73.48   44.71  0. 1.0000     0.      0.00 
  -5  -7   7    239.11    6.10  0. 1.0000     0.      0.00 
  -4  -7   7    153.69    5.08  0. 1.0000     0.      0.00 
  -3  -7   7     26.65    3.46  0. 1.0000     0.      0.00 
  -2  -7   7     14.78    1.93  0. 1.0000     0.      0.00 
  -1  -7   7     10.93    1.28  0. 1.0000     0.      0.00 
   0  -7   7      6.30    3.28  0. 1.0000     0.      0.00 
   1  -7   7      0.00    3.80  0. 1.0000     0.      0.00 
   2  -7   7    189.15    4.49  0. 1.0000     0.      0.00 
   3  -7   7   2080.74   23.00  0. 1.0000     0.      0.00 
   4  -7   7    228.12    5.53  0. 1.0000     0.      0.00 
   5  -7   7     65.91    3.37  0. 1.0000     0.      0.00 
   6  -7   7      8.06    2.43  0. 1.0000     0.      0.00 
   7  -7   7     26.11    3.11  0. 1.0000     0.      0.00 
   8  -7   7     98.63    4.97  0. 1.0000     0.      0.00 
   9  -7   7    141.62    3.18  0. 1.0000     0.      0.00 
  10  -7   7     19.96    2.63  0. 1.0000     0.      0.00 
  11  -7   7    285.32    7.84  0. 1.0000     0.      0.00 
  12  -7   7     15.87    7.09  0. 1.0000     0.      0.00 
  13  -7   7     43.10   12.15  0. 1.0000     0.      0.00 
 -11  -6   7     24.08   13.16  0. 1.0000     0.      0.00 
 -10  -6   7     72.04   24.85  0. 1.0000     0.      0.00 
  -9  -6   7      9.61   34.68  0. 1.0000     0.      0.00 
  -8  -6   7     17.02   12.32  0. 1.0000     0.      0.00 
  -7  -6   7    149.31    5.18  0. 1.0000     0.      0.00 
  -6  -6   7     27.71    3.10  0. 1.0000     0.      0.00 
  -5  -6   7     93.70    2.71  0. 1.0000     0.      0.00 
  -4  -6   7     77.61    1.91  0. 1.0000     0.      0.00 
  -3  -6   7     46.87    3.64  0. 1.0000     0.      0.00 
  -2  -6   7      4.19    1.71  0. 1.0000     0.      0.00 
  -1  -6   7    342.26    4.28  0. 1.0000     0.      0.00 
   0  -6   7     15.57    2.22  0. 1.0000     0.      0.00 
   1  -6   7    472.48    6.34  0. 1.0000     0.      0.00 
   2  -6   7     59.35    2.04  0. 1.0000     0.      0.00 
   3  -6   7   1248.09   11.62  0. 1.0000     0.      0.00 
   4  -6   7    220.22    8.35  0. 1.0000     0.      0.00 
   5  -6   7    265.97    3.48  0. 1.0000     0.      0.00 
   6  -6   7    103.55    3.83  0. 1.0000     0.      0.00 
   7  -6   7    315.86    3.42  0. 1.0000     0.      0.00 
   8  -6   7      0.00    6.26  0. 1.0000     0.      0.00 
   9  -6   7   1022.95   13.10  0. 1.0000     0.      0.00 
  10  -6   7    110.50    6.22  0. 1.0000     0.      0.00 
  11  -6   7     14.24   12.35  0. 1.0000     0.      0.00 
  12  -6   7     16.02   16.52  0. 1.0000     0.      0.00 
  13  -6   7      0.00   37.29  0. 1.0000     0.      0.00 
 -11  -5   7      4.93   14.08  0. 1.0000     0.      0.00 
 -10  -5   7     29.89    7.77  0. 1.0000     0.      0.00 
  -9  -5   7    160.27    6.34  0. 1.0000     0.      0.00 
  -8  -5   7     58.06    3.41  0. 1.0000     0.      0.00 
  -7  -5   7     89.09    3.97  0. 1.0000     0.      0.00 
  -6  -5   7     11.59    2.52  0. 1.0000     0.      0.00 
  -5  -5   7     73.85    2.49  0. 1.0000     0.      0.00 
  -4  -5   7    108.90    2.42  0. 1.0000     0.      0.00 
  -3  -5   7    363.24    6.95  0. 1.0000     0.      0.00 
  -2  -5   7    538.13    5.54  0. 1.0000     0.      0.00 
  -1  -5   7   1406.65   14.52  0. 1.0000     0.      0.00 
   0  -5   7     29.11    3.12  0. 1.0000     0.      0.00 
   1  -5   7     22.18    1.27  0. 1.0000     0.      0.00 
   2  -5   7     14.78    1.45  0. 1.0000     0.      0.00 
   3  -5   7     78.03    1.36  0. 1.0000     0.      0.00 
   4  -5   7     38.56    4.92  0. 1.0000     0.      0.00 
   5  -5   7    210.65    2.52  0. 1.0000     0.      0.00 
   6  -5   7   1292.53   12.90  0. 1.0000     0.      0.00 
   7  -5   7    458.27    6.92  0. 1.0000     0.      0.00 
   8  -5   7      3.98    3.03  0. 1.0000     0.      0.00 
   9  -5   7     40.10   12.44  0. 1.0000     0.      0.00 
  10  -5   7    128.53   25.33  0. 1.0000     0.      0.00 
  11  -5   7     10.76   12.07  0. 1.0000     0.      0.00 
  12  -5   7     14.86    8.97  0. 1.0000     0.      0.00 
  13  -5   7     17.19    6.68  0. 1.0000     0.      0.00 
  14  -5   7    153.66    7.37  0. 1.0000     0.      0.00 
 -12  -4   7     39.27    8.19  0. 1.0000     0.      0.00 
 -11  -4   7     28.27    5.70  0. 1.0000     0.      0.00 
 -10  -4   7     22.64    3.61  0. 1.0000     0.      0.00 
  -9  -4   7      7.84    3.43  0. 1.0000     0.      0.00 
  -8  -4   7     28.52    3.64  0. 1.0000     0.      0.00 
  -7  -4   7     68.96    3.73  0. 1.0000     0.      0.00 
  -6  -4   7     30.79    3.09  0. 1.0000     0.      0.00 
  -5  -4   7     22.78    3.73  0. 1.0000     0.      0.00 
  -4  -4   7    266.44    4.70  0. 1.0000     0.      0.00 
  -3  -4   7    833.18   10.84  0. 1.0000     0.      0.00 
  -2  -4   7    769.14    8.24  0. 1.0000     0.      0.00 
  -1  -4   7    343.71   11.25  0. 1.0000     0.      0.00 
   0  -4   7    143.42    5.82  0. 1.0000     0.      0.00 
   1  -4   7     61.92    4.79  0. 1.0000     0.      0.00 
   2  -4   7     80.52    1.68  0. 1.0000     0.      0.00 
   3  -4   7    135.41    6.11  0. 1.0000     0.      0.00 
   4  -4   7   1307.01   12.09  0. 1.0000     0.      0.00 
   5  -4   7    253.02    8.07  0. 1.0000     0.      0.00 
   6  -4   7   1019.32   12.88  0. 1.0000     0.      0.00 
   7  -4   7     91.49    3.41  0. 1.0000     0.      0.00 
   8  -4   7    335.28    5.74  0. 1.0000     0.      0.00 
   9  -4   7     78.18    3.35  0. 1.0000     0.      0.00 
  10  -4   7    578.22    8.71  0. 1.0000     0.      0.00 
  11  -4   7     47.69    4.76  0. 1.0000     0.      0.00 
  12  -4   7    292.98    6.66  0. 1.0000     0.      0.00 
  13  -4   7      7.16    5.70  0. 1.0000     0.      0.00 
  14  -4   7     20.08   10.26  0. 1.0000     0.      0.00 
 -12  -3   7     26.58    6.07  0. 1.0000     0.      0.00 
 -11  -3   7     26.20    6.05  0. 1.0000     0.      0.00 
 -10  -3   7     10.64    7.45  0. 1.0000     0.      0.00 
  -9  -3   7     51.26    5.64  0. 1.0000     0.      0.00 
  -8  -3   7     25.38   11.57  0. 1.0000     0.      0.00 
  -7  -3   7    305.24   12.58  0. 1.0000     0.      0.00 
  -6  -3   7   1236.38   14.63  0. 1.0000     0.      0.00 
  -5  -3   7    108.07   13.55  0. 1.0000     0.      0.00 
  -4  -3   7    184.56    2.97  0. 1.0000     0.      0.00 
  -3  -3   7    159.38    2.97  0. 1.0000     0.      0.00 
  -2  -3   7    220.23    2.32  0. 1.0000     0.      0.00 
  -1  -3   7    276.10    9.59  0. 1.0000     0.      0.00 
   0  -3   7    503.04    4.64  0. 1.0000     0.      0.00 
   1  -3   7    291.32    3.95  0. 1.0000     0.      0.00 
   2  -3   7   2082.21   18.57  0. 1.0000     0.      0.00 
   3  -3   7    270.62    3.12  0. 1.0000     0.      0.00 
   4  -3   7    111.05    1.66  0. 1.0000     0.      0.00 
   5  -3   7      6.84    1.27  0. 1.0000     0.      0.00 
   6  -3   7    262.99    3.68  0. 1.0000     0.      0.00 
   7  -3   7      0.80    1.64  0. 1.0000     0.      0.00 
   8  -3   7      6.69    1.91  0. 1.0000     0.      0.00 
   9  -3   7    203.42    3.72  0. 1.0000     0.      0.00 
  10  -3   7    704.27   10.27  0. 1.0000     0.      0.00 
  11  -3   7     13.32    5.44  0. 1.0000     0.      0.00 
  12  -3   7    100.19   10.48  0. 1.0000     0.      0.00 
  13  -3   7      5.80   12.91  0. 1.0000     0.      0.00 
  14  -3   7     13.49   21.92  0. 1.0000     0.      0.00 
 -13  -2   7     12.15    9.75  0. 1.0000     0.      0.00 
 -12  -2   7      0.00   10.46  0. 1.0000     0.      0.00 
 -11  -2   7    110.41   18.94  0. 1.0000     0.      0.00 
 -10  -2   7     40.85   19.80  0. 1.0000     0.      0.00 
  -9  -2   7    144.66    6.75  0. 1.0000     0.      0.00 
  -8  -2   7    295.75    5.03  0. 1.0000     0.      0.00 
  -7  -2   7     30.10    2.53  0. 1.0000     0.      0.00 
  -6  -2   7    171.67    3.07  0. 1.0000     0.      0.00 
  -5  -2   7     95.43   14.62  0. 1.0000     0.      0.00 
  -4  -2   7     92.66    1.48  0. 1.0000     0.      0.00 
  -3  -2   7     67.90    3.61  0. 1.0000     0.      0.00 
  -2  -2   7     41.72    1.45  0. 1.0000     0.      0.00 
  -1  -2   7     57.40    1.54  0. 1.0000     0.      0.00 
   0  -2   7   3741.52   32.62  0. 1.0000     0.      0.00 
   1  -2   7   1258.91   12.55  0. 1.0000     0.      0.00 
   2  -2   7   1555.42   17.94  0. 1.0000     0.      0.00 
   3  -2   7    164.57    1.95  0. 1.0000     0.      0.00 
   4  -2   7    717.19    6.98  0. 1.0000     0.      0.00 
   5  -2   7    160.26    1.84  0. 1.0000     0.      0.00 
   6  -2   7    654.90    6.27  0. 1.0000     0.      0.00 
   7  -2   7    869.62    9.31  0. 1.0000     0.      0.00 
   8  -2   7    599.48    7.63  0. 1.0000     0.      0.00 
   9  -2   7    311.90    6.83  0. 1.0000     0.      0.00 
  10  -2   7     21.17    6.19  0. 1.0000     0.      0.00 
  11  -2   7      0.00   17.31  0. 1.0000     0.      0.00 
  12  -2   7      0.00   22.80  0. 1.0000     0.      0.00 
  13  -2   7    172.70   20.98  0. 1.0000     0.      0.00 
 -13  -1   7      0.00   35.04  0. 1.0000     0.      0.00 
 -12  -1   7     20.13   12.48  0. 1.0000     0.      0.00 
 -11  -1   7      3.17    7.68  0. 1.0000     0.      0.00 
 -10  -1   7     47.56    4.33  0. 1.0000     0.      0.00 
  -9  -1   7    370.92   11.77  0. 1.0000     0.      0.00 
  -8  -1   7    133.24    3.35  0. 1.0000     0.      0.00 
  -7  -1   7     19.53    1.91  0. 1.0000     0.      0.00 
  -6  -1   7     76.39    2.19  0. 1.0000     0.      0.00 
  -5  -1   7     15.61    2.88  0. 1.0000     0.      0.00 
  -4  -1   7    611.64    9.17  0. 1.0000     0.      0.00 
  -3  -1   7   2344.26   20.94  0. 1.0000     0.      0.00 
  -2  -1   7    265.45    2.58  0. 1.0000     0.      0.00 
  -1  -1   7    133.20    3.22  0. 1.0000     0.      0.00 
   0  -1   7    659.82   10.15  0. 1.0000     0.      0.00 
   1  -1   7    164.58    3.63  0. 1.0000     0.      0.00 
   2  -1   7      4.30    0.62  0. 1.0000     0.      0.00 
   3  -1   7    195.72    2.06  0. 1.0000     0.      0.00 
   4  -1   7     88.86    1.91  0. 1.0000     0.      0.00 
   5  -1   7   1243.58   13.18  0. 1.0000     0.      0.00 
   6  -1   7    556.00    6.66  0. 1.0000     0.      0.00 
   7  -1   7    659.05    9.20  0. 1.0000     0.      0.00 
   8  -1   7      1.65    4.31  0. 1.0000     0.      0.00 
   9  -1   7    144.84   33.80  0. 1.0000     0.      0.00 
  10  -1   7      0.40    6.07  0. 1.0000     0.      0.00 
  11  -1   7      0.66    7.35  0. 1.0000     0.      0.00 
  12  -1   7     20.66    5.63  0. 1.0000     0.      0.00 
  13  -1   7    637.85   10.75  0. 1.0000     0.      0.00 
 -13   0   7     34.65    8.67  0. 1.0000     0.      0.00 
 -12   0   7     60.19    5.33  0. 1.0000     0.      0.00 
 -11   0   7     39.10    4.48  0. 1.0000     0.      0.00 
 -10   0   7      3.54    4.01  0. 1.0000     0.      0.00 
  -9   0   7     14.63    3.44  0. 1.0000     0.      0.00 
  -8   0   7    109.86    3.62  0. 1.0000     0.      0.00 
  -7   0   7      7.15    2.26  0. 1.0000     0.      0.00 
  -6   0   7    100.37    2.58  0. 1.0000     0.      0.00 
  -5   0   7    554.32    6.89  0. 1.0000     0.      0.00 
  -4   0   7    419.99    4.49  0. 1.0000     0.      0.00 
  -3   0   7   2158.50   30.47  0. 1.0000     0.      0.00 
  -2   0   7     22.78    0.95  0. 1.0000     0.      0.00 
  -1   0   7    306.57    2.94  0. 1.0000     0.      0.00 
   0   0   7     43.65    0.87  0. 1.0000     0.      0.00 
   1   0   7     29.89    1.46  0. 1.0000     0.      0.00 
   2   0   7     74.18    1.09  0. 1.0000     0.      0.00 
   3   0   7   4384.65   42.31  0. 1.0000     0.      0.00 
   4   0   7    141.01    2.30  0. 1.0000     0.      0.00 
   5   0   7    624.53    6.53  0. 1.0000     0.      0.00 
   6   0   7     59.49    1.93  0. 1.0000     0.      0.00 
   7   0   7    111.23    4.15  0. 1.0000     0.      0.00 
   8   0   7    308.40    5.00  0. 1.0000     0.      0.00 
   9   0   7    653.97    8.70  0. 1.0000     0.      0.00 
  10   0   7     36.10    3.20  0. 1.0000     0.      0.00 
  11   0   7    135.26    5.09  0. 1.0000     0.      0.00 
  12   0   7     35.12    5.63  0. 1.0000     0.      0.00 
  13   0   7     69.40    9.98  0. 1.0000     0.      0.00 
 -13   1   7     77.33    5.83  0. 1.0000     0.      0.00 
 -12   1   7      0.76    6.14  0. 1.0000     0.      0.00 
 -11   1   7     29.94    6.57  0. 1.0000     0.      0.00 
 -10   1   7      0.25    6.05  0. 1.0000     0.      0.00 
  -9   1   7     41.58   23.23  0. 1.0000     0.      0.00 
  -8   1   7      6.01    7.57  0. 1.0000     0.      0.00 
  -7   1   7    696.45    9.82  0. 1.0000     0.      0.00 
  -6   1   7    360.23    5.16  0. 1.0000     0.      0.00 
  -5   1   7    524.66    8.37  0. 1.0000     0.      0.00 
  -4   1   7    264.48    2.87  0. 1.0000     0.      0.00 
  -3   1   7     34.42    1.10  0. 1.0000     0.      0.00 
  -2   1   7     28.04    0.77  0. 1.0000     0.      0.00 
  -1   1   7    785.77    7.23  0. 1.0000     0.      0.00 
   0   1   7   1445.34   14.94  0. 1.0000     0.      0.00 
   1   1   7    853.82    7.75  0. 1.0000     0.      0.00 
   2   1   7    106.92    1.39  0. 1.0000     0.      0.00 
   3   1   7   1019.71    9.59  0. 1.0000     0.      0.00 
   4   1   7    499.13    6.70  0. 1.0000     0.      0.00 
   5   1   7     93.93    3.09  0. 1.0000     0.      0.00 
   6   1   7      3.67    1.82  0. 1.0000     0.      0.00 
   7   1   7     95.18    2.60  0. 1.0000     0.      0.00 
   8   1   7    595.85    6.98  0. 1.0000     0.      0.00 
   9   1   7    730.92   10.91  0. 1.0000     0.      0.00 
  10   1   7    262.71    5.61  0. 1.0000     0.      0.00 
  11   1   7     26.35    9.73  0. 1.0000     0.      0.00 
  12   1   7      0.00   15.60  0. 1.0000     0.      0.00 
  13   1   7      0.00   36.80  0. 1.0000     0.      0.00 
 -14   2   7     11.91   14.05  0. 1.0000     0.      0.00 
 -13   2   7     24.68   12.99  0. 1.0000     0.      0.00 
 -11   2   7      2.23   25.16  0. 1.0000     0.      0.00 
 -10   2   7     20.90    6.05  0. 1.0000     0.      0.00 
  -9   2   7    569.77    8.75  0. 1.0000     0.      0.00 
  -8   2   7    170.05    4.76  0. 1.0000     0.      0.00 
  -7   2   7    150.00    4.32  0. 1.0000     0.      0.00 
  -6   2   7    194.88    3.60  0. 1.0000     0.      0.00 
  -5   2   7      9.11    1.21  0. 1.0000     0.      0.00 
  -4   2   7    244.02    4.32  0. 1.0000     0.      0.00 
  -3   2   7     25.55    1.24  0. 1.0000     0.      0.00 
  -2   2   7   2208.49   21.24  0. 1.0000     0.      0.00 
  -1   2   7   1554.91   14.61  0. 1.0000     0.      0.00 
   0   2   7   2610.31   23.43  0. 1.0000     0.      0.00 
   1   2   7    110.22    1.82  0. 1.0000     0.      0.00 
   2   2   7    310.92    4.22  0. 1.0000     0.      0.00 
   3   2   7    138.45    2.03  0. 1.0000     0.      0.00 
   4   2   7    497.31    5.68  0. 1.0000     0.      0.00 
   5   2   7     10.00    1.80  0. 1.0000     0.      0.00 
   6   2   7   1270.44   13.72  0. 1.0000     0.      0.00 
   7   2   7     25.92    2.41  0. 1.0000     0.      0.00 
   8   2   7    354.18    5.77  0. 1.0000     0.      0.00 
   9   2   7     17.76    7.52  0. 1.0000     0.      0.00 
  10   2   7     14.31   18.86  0. 1.0000     0.      0.00 
  11   2   7      7.09   40.32  0. 1.0000     0.      0.00 
  12   2   7    132.62   17.94  0. 1.0000     0.      0.00 
 -14   3   7      5.29   29.31  0. 1.0000     0.      0.00 
 -13   3   7     57.97   13.06  0. 1.0000     0.      0.00 
 -12   3   7     37.67    8.47  0. 1.0000     0.      0.00 
 -11   3   7     10.86    4.93  0. 1.0000     0.      0.00 
 -10   3   7    322.76    6.91  0. 1.0000     0.      0.00 
  -9   3   7    109.01    3.08  0. 1.0000     0.      0.00 
  -8   3   7     63.07    1.93  0. 1.0000     0.      0.00 
  -7   3   7     35.57    1.78  0. 1.0000     0.      0.00 
  -6   3   7    214.57    3.43  0. 1.0000     0.      0.00 
  -5   3   7      4.36    1.34  0. 1.0000     0.      0.00 
  -4   3   7    628.22    6.24  0. 1.0000     0.      0.00 
  -3   3   7     12.42    0.65  0. 1.0000     0.      0.00 
  -2   3   7    913.41   12.21  0. 1.0000     0.      0.00 
  -1   3   7     72.85    2.15  0. 1.0000     0.      0.00 
   0   3   7    272.19    9.25  0. 1.0000     0.      0.00 
   1   3   7    255.52    3.22  0. 1.0000     0.      0.00 
   2   3   7     17.71    1.41  0. 1.0000     0.      0.00 
   3   3   7    198.52    2.53  0. 1.0000     0.      0.00 
   4   3   7   1363.22   13.11  0. 1.0000     0.      0.00 
   5   3   7     41.75    1.90  0. 1.0000     0.      0.00 
   6   3   7   1355.07   14.07  0. 1.0000     0.      0.00 
   7   3   7     24.43    9.06  0. 1.0000     0.      0.00 
   8   3   7      0.00   19.42  0. 1.0000     0.      0.00 
   9   3   7      0.00    7.43  0. 1.0000     0.      0.00 
  10   3   7     18.16    7.07  0. 1.0000     0.      0.00 
  11   3   7    180.11    7.19  0. 1.0000     0.      0.00 
  12   3   7    494.10    9.35  0. 1.0000     0.      0.00 
 -14   4   7     21.31   10.10  0. 1.0000     0.      0.00 
 -13   4   7     22.00    5.26  0. 1.0000     0.      0.00 
 -12   4   7     85.93    5.29  0. 1.0000     0.      0.00 
 -11   4   7     40.38    4.04  0. 1.0000     0.      0.00 
 -10   4   7    124.13    5.42  0. 1.0000     0.      0.00 
  -9   4   7      8.07    3.05  0. 1.0000     0.      0.00 
  -8   4   7    252.23    4.94  0. 1.0000     0.      0.00 
  -7   4   7     23.60    4.62  0. 1.0000     0.      0.00 
  -6   4   7   1334.48   21.52  0. 1.0000     0.      0.00 
  -5   4   7    104.97    3.17  0. 1.0000     0.      0.00 
  -4   4   7   1026.46   15.53  0. 1.0000     0.      0.00 
  -3   4   7     33.72    1.26  0. 1.0000     0.      0.00 
  -2   4   7     89.21    1.77  0. 1.0000     0.      0.00 
  -1   4   7      4.75    0.71  0. 1.0000     0.      0.00 
   0   4   7     22.66    1.17  0. 1.0000     0.      0.00 
   1   4   7   1332.92   12.33  0. 1.0000     0.      0.00 
   2   4   7   1821.41   16.27  0. 1.0000     0.      0.00 
   3   4   7    368.90    4.31  0. 1.0000     0.      0.00 
   4   4   7    281.62    4.37  0. 1.0000     0.      0.00 
   5   4   7      3.78    4.76  0. 1.0000     0.      0.00 
   6   4   7     29.25    3.00  0. 1.0000     0.      0.00 
   7   4   7    418.97    6.00  0. 1.0000     0.      0.00 
   8   4   7     85.29    3.72  0. 1.0000     0.      0.00 
   9   4   7     68.05    4.86  0. 1.0000     0.      0.00 
  10   4   7     16.85    4.08  0. 1.0000     0.      0.00 
  11   4   7    206.39    7.74  0. 1.0000     0.      0.00 
  12   4   7     18.33   11.81  0. 1.0000     0.      0.00 
 -14   5   7     64.10    7.05  0. 1.0000     0.      0.00 
 -13   5   7      2.35    6.51  0. 1.0000     0.      0.00 
 -12   5   7     13.16    7.99  0. 1.0000     0.      0.00 
 -11   5   7      8.35    8.94  0. 1.0000     0.      0.00 
 -10   5   7    138.30   21.89  0. 1.0000     0.      0.00 
  -9   5   7    109.30   14.43  0. 1.0000     0.      0.00 
  -8   5   7     10.91    3.57  0. 1.0000     0.      0.00 
  -7   5   7    244.48    3.52  0. 1.0000     0.      0.00 
  -6   5   7    719.69    7.56  0. 1.0000     0.      0.00 
  -5   5   7      6.53    1.38  0. 1.0000     0.      0.00 
  -4   5   7     14.62    0.89  0. 1.0000     0.      0.00 
  -3   5   7    424.94    5.59  0. 1.0000     0.      0.00 
  -2   5   7      4.93    1.11  0. 1.0000     0.      0.00 
  -1   5   7    130.95    2.09  0. 1.0000     0.      0.00 
   0   5   7    103.41    2.37  0. 1.0000     0.      0.00 
   1   5   7   2092.85   24.37  0. 1.0000     0.      0.00 
   2   5   7    333.10    5.52  0. 1.0000     0.      0.00 
   3   5   7    314.85    4.03  0. 1.0000     0.      0.00 
   4   5   7     71.23    3.46  0. 1.0000     0.      0.00 
   5   5   7     38.84    2.29  0. 1.0000     0.      0.00 
   6   5   7     98.16    3.86  0. 1.0000     0.      0.00 
   7   5   7   1039.17   13.38  0. 1.0000     0.      0.00 
   8   5   7     75.92    4.00  0. 1.0000     0.      0.00 
   9   5   7    260.65    7.78  0. 1.0000     0.      0.00 
  10   5   7      0.00   11.74  0. 1.0000     0.      0.00 
  11   5   7     21.02   19.48  0. 1.0000     0.      0.00 
 -13   6   7     36.90   29.76  0. 1.0000     0.      0.00 
 -12   6   7     61.47   27.63  0. 1.0000     0.      0.00 
 -11   6   7     15.61    7.45  0. 1.0000     0.      0.00 
 -10   6   7    226.46    5.54  0. 1.0000     0.      0.00 
  -9   6   7    588.61    7.45  0. 1.0000     0.      0.00 
  -8   6   7      9.92    2.04  0. 1.0000     0.      0.00 
  -7   6   7     99.67    1.85  0. 1.0000     0.      0.00 
  -6   6   7      0.00    1.66  0. 1.0000     0.      0.00 
  -5   6   7    234.79    3.29  0. 1.0000     0.      0.00 
  -4   6   7    150.29    3.99  0. 1.0000     0.      0.00 
  -3   6   7   2540.73   25.23  0. 1.0000     0.      0.00 
  -2   6   7      5.68    1.16  0. 1.0000     0.      0.00 
  -1   6   7    741.47    9.59  0. 1.0000     0.      0.00 
   0   6   7      0.00    1.42  0. 1.0000     0.      0.00 
   1   6   7      5.17    1.82  0. 1.0000     0.      0.00 
   2   6   7     80.18    2.13  0. 1.0000     0.      0.00 
   3   6   7    318.50    5.29  0. 1.0000     0.      0.00 
   4   6   7    225.62    3.29  0. 1.0000     0.      0.00 
   5   6   7    269.47    4.06  0. 1.0000     0.      0.00 
   6   6   7      4.68    3.55  0. 1.0000     0.      0.00 
   7   6   7    409.78    7.76  0. 1.0000     0.      0.00 
   8   6   7     42.24   18.73  0. 1.0000     0.      0.00 
   9   6   7      6.68   34.66  0. 1.0000     0.      0.00 
 -13   7   7     36.34   13.28  0. 1.0000     0.      0.00 
 -12   7   7     22.88    8.56  0. 1.0000     0.      0.00 
 -11   7   7    163.62    6.25  0. 1.0000     0.      0.00 
 -10   7   7     18.74    3.34  0. 1.0000     0.      0.00 
  -9   7   7      5.06    2.47  0. 1.0000     0.      0.00 
  -8   7   7    154.86    3.88  0. 1.0000     0.      0.00 
  -7   7   7    105.96    3.04  0. 1.0000     0.      0.00 
  -6   7   7      9.73    2.60  0. 1.0000     0.      0.00 
  -5   7   7     15.65    5.40  0. 1.0000     0.      0.00 
  -4   7   7    221.25   12.88  0. 1.0000     0.      0.00 
  -3   7   7   1473.85   14.68  0. 1.0000     0.      0.00 
  -2   7   7     74.79    2.29  0. 1.0000     0.      0.00 
  -1   7   7      0.00    5.45  0. 1.0000     0.      0.00 
   0   7   7     50.74    2.44  0. 1.0000     0.      0.00 
   1   7   7     94.35    2.39  0. 1.0000     0.      0.00 
   2   7   7    219.25    8.07  0. 1.0000     0.      0.00 
   3   7   7    516.97    6.41  0. 1.0000     0.      0.00 
   4   7   7    755.34   10.31  0. 1.0000     0.      0.00 
   5   7   7    458.98   12.73  0. 1.0000     0.      0.00 
   6   7   7      0.00   33.24  0. 1.0000     0.      0.00 
   8   7   7     13.78   10.81  0. 1.0000     0.      0.00 
   9   7   7      8.43   10.21  0. 1.0000     0.      0.00 
  10   7   7    217.94   10.99  0. 1.0000     0.      0.00 
 -13   8   7     65.91    5.92  0. 1.0000     0.      0.00 
 -12   8   7    132.96    5.39  0. 1.0000     0.      0.00 
 -11   8   7      9.40    7.02  0. 1.0000     0.      0.00 
 -10   8   7     33.30    5.38  0. 1.0000     0.      0.00 
  -9   8   7    108.73    7.57  0. 1.0000     0.      0.00 
  -8   8   7    107.38   22.00  0. 1.0000     0.      0.00 
  -7   8   7    539.78   20.12  0. 1.0000     0.      0.00 
  -6   8   7    469.59    7.58  0. 1.0000     0.      0.00 
  -5   8   7     42.84    4.31  0. 1.0000     0.      0.00 
  -4   8   7     36.05    2.48  0. 1.0000     0.      0.00 
  -3   8   7      0.00    2.20  0. 1.0000     0.      0.00 
  -2   8   7     11.27    2.04  0. 1.0000     0.      0.00 
  -1   8   7     51.55    2.84  0. 1.0000     0.      0.00 
   0   8   7   1192.09   13.93  0. 1.0000     0.      0.00 
   1   8   7    175.84    3.61  0. 1.0000     0.      0.00 
   2   8   7    234.62    6.75  0. 1.0000     0.      0.00 
   3   8   7      1.16   25.38  0. 1.0000     0.      0.00 
   5   8   7      5.88    8.27  0. 1.0000     0.      0.00 
   6   8   7     97.91    7.90  0. 1.0000     0.      0.00 
   7   8   7     23.38    7.00  0. 1.0000     0.      0.00 
   8   8   7     18.57    6.72  0. 1.0000     0.      0.00 
   9   8   7      0.00    7.15  0. 1.0000     0.      0.00 
 -12   9   7     33.19   17.57  0. 1.0000     0.      0.00 
  -9   9   7      0.00    8.55  0. 1.0000     0.      0.00 
  -8   9   7    269.61    6.00  0. 1.0000     0.      0.00 
  -7   9   7    155.17    4.89  0. 1.0000     0.      0.00 
  -6   9   7    273.99    4.62  0. 1.0000     0.      0.00 
  -5   9   7    154.09    5.70  0. 1.0000     0.      0.00 
  -4   9   7     22.24    2.51  0. 1.0000     0.      0.00 
  -3   9   7      0.00    2.97  0. 1.0000     0.      0.00 
  -2   9   7     53.68    3.64  0. 1.0000     0.      0.00 
  -1   9   7     78.69    5.20  0. 1.0000     0.      0.00 
   0   9   7   1790.37  127.23  0. 1.0000     0.      0.00 
   1   9   7      0.00   10.90  0. 1.0000     0.      0.00 
   2   9   7      6.95    6.10  0. 1.0000     0.      0.00 
   3   9   7     95.02    4.07  0. 1.0000     0.      0.00 
   4   9   7     19.87    3.93  0. 1.0000     0.      0.00 
   5   9   7    102.21    6.25  0. 1.0000     0.      0.00 
   6   9   7    437.90   10.63  0. 1.0000     0.      0.00 
   7   9   7     17.25    6.68  0. 1.0000     0.      0.00 
   8   9   7     54.56    9.73  0. 1.0000     0.      0.00 
 -12  10   7     25.12   16.14  0. 1.0000     0.      0.00 
 -11  10   7      0.00   10.20  0. 1.0000     0.      0.00 
 -10  10   7    191.11    9.60  0. 1.0000     0.      0.00 
  -9  10   7     40.10    6.76  0. 1.0000     0.      0.00 
  -8  10   7     26.74    2.68  0. 1.0000     0.      0.00 
  -7  10   7      6.24    3.10  0. 1.0000     0.      0.00 
  -6  10   7     19.49    3.90  0. 1.0000     0.      0.00 
  -5  10   7    474.94    7.39  0. 1.0000     0.      0.00 
  -4  10   7    454.42   11.19  0. 1.0000     0.      0.00 
  -3  10   7      0.00   27.38  0. 1.0000     0.      0.00 
  -2  10   7     58.26   37.24  0. 1.0000     0.      0.00 
  -1  10   7    116.55    6.43  0. 1.0000     0.      0.00 
   0  10   7     43.39    3.80  0. 1.0000     0.      0.00 
   1  10   7    115.18    3.96  0. 1.0000     0.      0.00 
   2  10   7      3.14    3.40  0. 1.0000     0.      0.00 
   3  10   7    104.68    3.89  0. 1.0000     0.      0.00 
   4  10   7     34.72    7.72  0. 1.0000     0.      0.00 
   5  10   7     94.76    7.77  0. 1.0000     0.      0.00 
   6  10   7    105.72   11.51  0. 1.0000     0.      0.00 
   7  10   7     20.30   21.93  0. 1.0000     0.      0.00 
 -11  11   7     14.41    5.59  0. 1.0000     0.      0.00 
 -10  11   7      0.00    4.99  0. 1.0000     0.      0.00 
  -9  11   7    130.59    7.93  0. 1.0000     0.      0.00 
  -8  11   7      9.65   10.52  0. 1.0000     0.      0.00 
  -7  11   7      6.92   13.40  0. 1.0000     0.      0.00 
  -6  11   7      0.00   46.62  0. 1.0000     0.      0.00 
  -5  11   7    622.92   43.33  0. 1.0000     0.      0.00 
  -4  11   7    358.56   12.13  0. 1.0000     0.      0.00 
  -3  11   7    117.80    5.50  0. 1.0000     0.      0.00 
  -2  11   7     16.83    3.77  0. 1.0000     0.      0.00 
  -1  11   7      0.00    3.59  0. 1.0000     0.      0.00 
   0  11   7     16.24    3.62  0. 1.0000     0.      0.00 
   1  11   7    228.76    6.72  0. 1.0000     0.      0.00 
   2  11   7     10.27    5.44  0. 1.0000     0.      0.00 
   3  11   7    442.13   11.80  0. 1.0000     0.      0.00 
   4  11   7     63.07   17.47  0. 1.0000     0.      0.00 
   5  11   7     12.25   35.94  0. 1.0000     0.      0.00 
   6  11   7     40.06   49.43  0. 1.0000     0.      0.00 
 -10  12   7      5.72   47.19  0. 1.0000     0.      0.00 
  -8  12   7      6.90   31.94  0. 1.0000     0.      0.00 
  -7  12   7    107.47   16.42  0. 1.0000     0.      0.00 
  -6  12   7      0.00    8.89  0. 1.0000     0.      0.00 
  -5  12   7     66.79    6.16  0. 1.0000     0.      0.00 
  -4  12   7      0.00    5.03  0. 1.0000     0.      0.00 
  -3  12   7     30.82    3.65  0. 1.0000     0.      0.00 
  -2  12   7    217.45    5.98  0. 1.0000     0.      0.00 
  -1  12   7    147.16    5.92  0. 1.0000     0.      0.00 
   0  12   7      0.00    8.76  0. 1.0000     0.      0.00 
   1  12   7    104.56   19.65  0. 1.0000     0.      0.00 
   4  12   7      0.00   16.59  0. 1.0000     0.      0.00 
  -9  13   7    180.42   12.73  0. 1.0000     0.      0.00 
  -8  13   7      9.37   10.48  0. 1.0000     0.      0.00 
  -7  13   7     40.84    5.75  0. 1.0000     0.      0.00 
  -6  13   7     80.80    4.79  0. 1.0000     0.      0.00 
  -5  13   7     22.15    4.83  0. 1.0000     0.      0.00 
  -4  13   7      5.63    6.33  0. 1.0000     0.      0.00 
  -3  13   7      0.77   12.28  0. 1.0000     0.      0.00 
  -2  13   7    370.46   37.82  0. 1.0000     0.      0.00 
  -1  13   7    210.73   75.41  0. 1.0000     0.      0.00 
   1  13   7     15.39   17.97  0. 1.0000     0.      0.00 
   2  13   7     46.69   11.79  0. 1.0000     0.      0.00 
   3  13   7     20.67   10.64  0. 1.0000     0.      0.00 
  -7  14   7     48.95   11.18  0. 1.0000     0.      0.00 
  -6  14   7    211.35   18.45  0. 1.0000     0.      0.00 
  -3  14   7      0.00   27.09  0. 1.0000     0.      0.00 
  -2  14   7    233.43   18.95  0. 1.0000     0.      0.00 
  -1  14   7      5.20   11.83  0. 1.0000     0.      0.00 
   0  14   7     10.14    8.52  0. 1.0000     0.      0.00 
  -1 -14   8      5.59    5.60  0. 1.0000     0.      0.00 
   0 -14   8    196.62    8.15  0. 1.0000     0.      0.00 
   1 -14   8      0.00    8.69  0. 1.0000     0.      0.00 
   2 -14   8     43.86   12.71  0. 1.0000     0.      0.00 
   3 -14   8     34.87   27.86  0. 1.0000     0.      0.00 
   5 -14   8     19.70   16.99  0. 1.0000     0.      0.00 
   6 -14   8     28.14   11.47  0. 1.0000     0.      0.00 
   7 -14   8     11.67    7.61  0. 1.0000     0.      0.00 
   8 -14   8     30.90    6.68  0. 1.0000     0.      0.00 
  -3 -13   8     17.25    7.44  0. 1.0000     0.      0.00 
  -2 -13   8     35.97    8.20  0. 1.0000     0.      0.00 
  -1 -13   8      0.00   12.52  0. 1.0000     0.      0.00 
   2 -13   8      0.00   14.40  0. 1.0000     0.      0.00 
   3 -13   8     79.72    7.73  0. 1.0000     0.      0.00 
   4 -13   8      9.57    5.57  0. 1.0000     0.      0.00 
   5 -13   8      7.21    4.70  0. 1.0000     0.      0.00 
   6 -13   8     77.00    5.21  0. 1.0000     0.      0.00 
   7 -13   8    107.36    5.70  0. 1.0000     0.      0.00 
   8 -13   8     61.18    8.34  0. 1.0000     0.      0.00 
   9 -13   8     51.67   14.32  0. 1.0000     0.      0.00 
  -5 -12   8     28.27   11.50  0. 1.0000     0.      0.00 
  -4 -12   8     26.03   14.30  0. 1.0000     0.      0.00 
  -1 -12   8     22.92   12.65  0. 1.0000     0.      0.00 
   0 -12   8      9.45    6.80  0. 1.0000     0.      0.00 
   1 -12   8     11.81    6.42  0. 1.0000     0.      0.00 
   2 -12   8    177.54    9.47  0. 1.0000     0.      0.00 
   3 -12   8    217.39    5.97  0. 1.0000     0.      0.00 
   4 -12   8     30.32    4.82  0. 1.0000     0.      0.00 
   5 -12   8    196.34    8.47  0. 1.0000     0.      0.00 
   6 -12   8      3.86    8.26  0. 1.0000     0.      0.00 
   7 -12   8     68.60   13.75  0. 1.0000     0.      0.00 
   8 -12   8     16.39   23.78  0. 1.0000     0.      0.00 
   9 -12   8      0.00   45.88  0. 1.0000     0.      0.00 
  10 -12   8     43.47   16.16  0. 1.0000     0.      0.00 
  11 -12   8     23.71    6.73  0. 1.0000     0.      0.00 
  -6 -11   8      0.00   53.16  0. 1.0000     0.      0.00 
  -5 -11   8     18.68   65.31  0. 1.0000     0.      0.00 
  -4 -11   8     17.88   19.02  0. 1.0000     0.      0.00 
  -3 -11   8      8.52    6.86  0. 1.0000     0.      0.00 
  -2 -11   8    225.09    6.55  0. 1.0000     0.      0.00 
  -1 -11   8     23.58    4.09  0. 1.0000     0.      0.00 
   0 -11   8      8.12    2.43  0. 1.0000     0.      0.00 
   1 -11   8     41.71    3.50  0. 1.0000     0.      0.00 
   2 -11   8     17.97    3.99  0. 1.0000     0.      0.00 
   3 -11   8    194.73    6.11  0. 1.0000     0.      0.00 
   4 -11   8      0.00    6.23  0. 1.0000     0.      0.00 
   5 -11   8     36.66   21.25  0. 1.0000     0.      0.00 
   6 -11   8    113.90   20.78  0. 1.0000     0.      0.00 
   7 -11   8     14.70   20.08  0. 1.0000     0.      0.00 
   8 -11   8     30.76    8.35  0. 1.0000     0.      0.00 
   9 -11   8    184.92    6.96  0. 1.0000     0.      0.00 
  10 -11   8      6.70    5.53  0. 1.0000     0.      0.00 
  11 -11   8    199.46    6.45  0. 1.0000     0.      0.00 
  -7 -10   8      2.02   24.89  0. 1.0000     0.      0.00 
  -6 -10   8     92.05    8.98  0. 1.0000     0.      0.00 
  -5 -10   8     16.67    6.56  0. 1.0000     0.      0.00 
  -4 -10   8     61.38    6.02  0. 1.0000     0.      0.00 
  -3 -10   8     15.84    2.87  0. 1.0000     0.      0.00 
  -2 -10   8     61.15    3.35  0. 1.0000     0.      0.00 
  -1 -10   8    218.80    4.95  0. 1.0000     0.      0.00 
   0 -10   8     65.12    4.13  0. 1.0000     0.      0.00 
   1 -10   8    112.16    6.55  0. 1.0000     0.      0.00 
   2 -10   8      0.00   14.40  0. 1.0000     0.      0.00 
   3 -10   8      0.00   19.46  0. 1.0000     0.      0.00 
   4 -10   8      0.00    5.31  0. 1.0000     0.      0.00 
   5 -10   8    268.48    6.95  0. 1.0000     0.      0.00 
   6 -10   8      0.00    3.64  0. 1.0000     0.      0.00 
   7 -10   8    129.39    4.04  0. 1.0000     0.      0.00 
   8 -10   8     14.95    3.01  0. 1.0000     0.      0.00 
   9 -10   8     42.74    5.99  0. 1.0000     0.      0.00 
  10 -10   8     81.06    7.09  0. 1.0000     0.      0.00 
  11 -10   8     50.03    9.86  0. 1.0000     0.      0.00 
  12 -10   8     49.26   17.23  0. 1.0000     0.      0.00 
  -8  -9   8     11.89    8.69  0. 1.0000     0.      0.00 
  -7  -9   8     10.72    6.17  0. 1.0000     0.      0.00 
  -6  -9   8      0.00    4.36  0. 1.0000     0.      0.00 
  -5  -9   8     70.88    5.75  0. 1.0000     0.      0.00 
  -4  -9   8    303.93    6.07  0. 1.0000     0.      0.00 
  -3  -9   8      3.70    4.00  0. 1.0000     0.      0.00 
  -2  -9   8    669.10   10.25  0. 1.0000     0.      0.00 
  -1  -9   8      0.97   13.29  0. 1.0000     0.      0.00 
   0  -9   8    331.30   26.52  0. 1.0000     0.      0.00 
   1  -9   8    215.00   12.42  0. 1.0000     0.      0.00 
   2  -9   8     16.12    3.07  0. 1.0000     0.      0.00 
   3  -9   8      0.00    3.33  0. 1.0000     0.      0.00 
   4  -9   8      4.33    2.46  0. 1.0000     0.      0.00 
   5  -9   8     85.93    4.89  0. 1.0000     0.      0.00 
   6  -9   8    122.04    3.28  0. 1.0000     0.      0.00 
   7  -9   8     99.45    4.28  0. 1.0000     0.      0.00 
   8  -9   8    330.56    6.82  0. 1.0000     0.      0.00 
   9  -9   8      0.00    9.70  0. 1.0000     0.      0.00 
  10  -9   8     95.01   28.11  0. 1.0000     0.      0.00 
  11  -9   8      0.00   34.53  0. 1.0000     0.      0.00 
  12  -9   8      9.85   20.22  0. 1.0000     0.      0.00 
  13  -9   8      8.43    7.54  0. 1.0000     0.      0.00 
  -9  -8   8     38.09    6.44  0. 1.0000     0.      0.00 
  -8  -8   8    270.77    8.20  0. 1.0000     0.      0.00 
  -7  -8   8      8.20    6.12  0. 1.0000     0.      0.00 
  -6  -8   8    571.52   12.04  0. 1.0000     0.      0.00 
  -5  -8   8      3.87    5.57  0. 1.0000     0.      0.00 
  -4  -8   8    333.42   28.29  0. 1.0000     0.      0.00 
  -3  -8   8    239.26   41.20  0. 1.0000     0.      0.00 
  -2  -8   8     13.23    3.38  0. 1.0000     0.      0.00 
  -1  -8   8     47.93    2.83  0. 1.0000     0.      0.00 
   0  -8   8      1.78    2.39  0. 1.0000     0.      0.00 
   1  -8   8    185.11    9.42  0. 1.0000     0.      0.00 
   2  -8   8     69.78    1.97  0. 1.0000     0.      0.00 
   3  -8   8      0.00    2.08  0. 1.0000     0.      0.00 
   4  -8   8     66.31    2.71  0. 1.0000     0.      0.00 
   5  -8   8    282.25    5.87  0. 1.0000     0.      0.00 
   6  -8   8      0.00    5.61  0. 1.0000     0.      0.00 
   7  -8   8      0.00   10.61  0. 1.0000     0.      0.00 
   8  -8   8      5.30   19.86  0. 1.0000     0.      0.00 
   9  -8   8      0.00    7.49  0. 1.0000     0.      0.00 
  10  -8   8     32.09    6.36  0. 1.0000     0.      0.00 
  11  -8   8     31.37    7.22  0. 1.0000     0.      0.00 
  12  -8   8     45.06    5.86  0. 1.0000     0.      0.00 
  13  -8   8     25.61    5.37  0. 1.0000     0.      0.00 
 -10  -7   8     95.49    9.05  0. 1.0000     0.      0.00 
  -9  -7   8     40.81    8.46  0. 1.0000     0.      0.00 
  -8  -7   8    142.84   10.91  0. 1.0000     0.      0.00 
  -7  -7   8      0.00   21.19  0. 1.0000     0.      0.00 
  -6  -7   8    201.43   33.84  0. 1.0000     0.      0.00 
  -5  -7   8     69.93    4.50  0. 1.0000     0.      0.00 
  -4  -7   8     76.53    5.25  0. 1.0000     0.      0.00 
  -3  -7   8    415.16    9.95  0. 1.0000     0.      0.00 
  -2  -7   8      1.28    1.93  0. 1.0000     0.      0.00 
  -1  -7   8    129.07    2.39  0. 1.0000     0.      0.00 
   0  -7   8     59.17    2.14  0. 1.0000     0.      0.00 
   1  -7   8   1379.36   17.55  0. 1.0000     0.      0.00 
   2  -7   8      0.00    4.45  0. 1.0000     0.      0.00 
   3  -7   8    879.12   11.40  0. 1.0000     0.      0.00 
   4  -7   8     46.31    3.13  0. 1.0000     0.      0.00 
   5  -7   8     53.74    3.98  0. 1.0000     0.      0.00 
   6  -7   8     19.19    2.72  0. 1.0000     0.      0.00 
   7  -7   8      0.00    2.61  0. 1.0000     0.      0.00 
   8  -7   8    218.00    4.77  0. 1.0000     0.      0.00 
   9  -7   8      2.83    2.71  0. 1.0000     0.      0.00 
  10  -7   8    409.65    6.08  0. 1.0000     0.      0.00 
  11  -7   8      7.25    5.71  0. 1.0000     0.      0.00 
  12  -7   8     10.38    7.09  0. 1.0000     0.      0.00 
  13  -7   8     12.12   11.92  0. 1.0000     0.      0.00 
 -11  -6   8      8.67   17.51  0. 1.0000     0.      0.00 
 -10  -6   8    101.65   28.01  0. 1.0000     0.      0.00 
  -9  -6   8     37.98   30.72  0. 1.0000     0.      0.00 
  -8  -6   8      0.00   12.44  0. 1.0000     0.      0.00 
  -7  -6   8     59.11    4.69  0. 1.0000     0.      0.00 
  -6  -6   8      5.58    3.35  0. 1.0000     0.      0.00 
  -5  -6   8    128.25    2.97  0. 1.0000     0.      0.00 
  -4  -6   8    204.87    6.06  0. 1.0000     0.      0.00 
  -3  -6   8    443.35    5.86  0. 1.0000     0.      0.00 
  -2  -6   8     16.51    1.72  0. 1.0000     0.      0.00 
  -1  -6   8   1322.81   13.75  0. 1.0000     0.      0.00 
   0  -6   8      2.72    3.58  0. 1.0000     0.      0.00 
   1  -6   8    984.83   10.79  0. 1.0000     0.      0.00 
   2  -6   8    189.92    3.27  0. 1.0000     0.      0.00 
   3  -6   8    819.21   13.56  0. 1.0000     0.      0.00 
   4  -6   8    561.60    7.20  0. 1.0000     0.      0.00 
   5  -6   8      0.59    1.84  0. 1.0000     0.      0.00 
   6  -6   8     89.06    1.98  0. 1.0000     0.      0.00 
   7  -6   8     46.41    1.72  0. 1.0000     0.      0.00 
   8  -6   8     59.77    2.53  0. 1.0000     0.      0.00 
   9  -6   8      7.46    4.15  0. 1.0000     0.      0.00 
  10  -6   8      0.87    5.26  0. 1.0000     0.      0.00 
  11  -6   8     17.03   15.21  0. 1.0000     0.      0.00 
  12  -6   8      4.61   17.82  0. 1.0000     0.      0.00 
  13  -6   8     25.18   48.65  0. 1.0000     0.      0.00 
 -11  -5   8     23.55   15.46  0. 1.0000     0.      0.00 
 -10  -5   8     11.17    7.60  0. 1.0000     0.      0.00 
  -9  -5   8      0.00    6.04  0. 1.0000     0.      0.00 
  -8  -5   8    215.94    9.51  0. 1.0000     0.      0.00 
  -7  -5   8      2.90    2.11  0. 1.0000     0.      0.00 
  -6  -5   8     63.61    2.58  0. 1.0000     0.      0.00 
  -5  -5   8    625.93    7.85  0. 1.0000     0.      0.00 
  -4  -5   8      5.74    2.38  0. 1.0000     0.      0.00 
  -3  -5   8   2565.62   27.16  0. 1.0000     0.      0.00 
  -2  -5   8     66.14    1.99  0. 1.0000     0.      0.00 
  -1  -5   8   1702.37   21.26  0. 1.0000     0.      0.00 
   0  -5   8    319.93    3.84  0. 1.0000     0.      0.00 
   1  -5   8     65.16    1.89  0. 1.0000     0.      0.00 
   2  -5   8      4.09    1.40  0. 1.0000     0.      0.00 
   3  -5   8    523.43    5.86  0. 1.0000     0.      0.00 
   4  -5   8     55.34    1.07  0. 1.0000     0.      0.00 
   5  -5   8    113.29    1.93  0. 1.0000     0.      0.00 
   6  -5   8     39.26    3.21  0. 1.0000     0.      0.00 
   7  -5   8     28.97    2.45  0. 1.0000     0.      0.00 
   8  -5   8    384.45    5.99  0. 1.0000     0.      0.00 
   9  -5   8      0.00   13.57  0. 1.0000     0.      0.00 
  10  -5   8     89.22   34.88  0. 1.0000     0.      0.00 
  11  -5   8     14.93   12.13  0. 1.0000     0.      0.00 
  12  -5   8     11.74    8.19  0. 1.0000     0.      0.00 
  13  -5   8    128.71    7.51  0. 1.0000     0.      0.00 
  14  -5   8      0.00   27.61  0. 1.0000     0.      0.00 
 -12  -4   8     64.23    8.88  0. 1.0000     0.      0.00 
 -11  -4   8     14.24    5.49  0. 1.0000     0.      0.00 
 -10  -4   8      6.45    3.95  0. 1.0000     0.      0.00 
  -9  -4   8    152.98    4.52  0. 1.0000     0.      0.00 
  -8  -4   8     13.24    4.59  0. 1.0000     0.      0.00 
  -7  -4   8    717.02    9.46  0. 1.0000     0.      0.00 
  -6  -4   8     34.19    3.07  0. 1.0000     0.      0.00 
  -5  -4   8    311.64    6.02  0. 1.0000     0.      0.00 
  -4  -4   8     48.01    2.69  0. 1.0000     0.      0.00 
  -3  -4   8    159.49    3.32  0. 1.0000     0.      0.00 
  -2  -4   8     59.03    5.71  0. 1.0000     0.      0.00 
  -1  -4   8     72.75    4.52  0. 1.0000     0.      0.00 
   0  -4   8     89.47    1.39  0. 1.0000     0.      0.00 
   1  -4   8     22.25    0.76  0. 1.0000     0.      0.00 
   2  -4   8    194.81    2.40  0. 1.0000     0.      0.00 
   3  -4   8     39.61    1.10  0. 1.0000     0.      0.00 
   4  -4   8   2346.06   23.70  0. 1.0000     0.      0.00 
   5  -4   8    575.35    6.09  0. 1.0000     0.      0.00 
   6  -4   8   1303.85   18.48  0. 1.0000     0.      0.00 
   7  -4   8    109.70    3.78  0. 1.0000     0.      0.00 
   8  -4   8    140.44    3.97  0. 1.0000     0.      0.00 
   9  -4   8     48.55    3.17  0. 1.0000     0.      0.00 
  10  -4   8     19.85    3.65  0. 1.0000     0.      0.00 
  11  -4   8      0.00    4.79  0. 1.0000     0.      0.00 
  12  -4   8     10.96    3.77  0. 1.0000     0.      0.00 
  13  -4   8    120.97    6.37  0. 1.0000     0.      0.00 
  14  -4   8     16.06   18.15  0. 1.0000     0.      0.00 
 -12  -3   8     20.12    6.06  0. 1.0000     0.      0.00 
 -11  -3   8     57.47    6.79  0. 1.0000     0.      0.00 
 -10  -3   8    273.65    9.63  0. 1.0000     0.      0.00 
  -9  -3   8      0.00    5.49  0. 1.0000     0.      0.00 
  -8  -3   8    350.81   15.39  0. 1.0000     0.      0.00 
  -7  -3   8    100.06    8.13  0. 1.0000     0.      0.00 
  -6  -3   8     86.82    6.20  0. 1.0000     0.      0.00 
  -5  -3   8     19.77    2.01  0. 1.0000     0.      0.00 
  -4  -3   8    267.90    6.28  0. 1.0000     0.      0.00 
  -3  -3   8     76.25    1.83  0. 1.0000     0.      0.00 
  -2  -3   8    308.86    3.01  0. 1.0000     0.      0.00 
  -1  -3   8    233.32    3.29  0. 1.0000     0.      0.00 
   0  -3   8   2520.70   23.39  0. 1.0000     0.      0.00 
   1  -3   8    344.85    3.88  0. 1.0000     0.      0.00 
   2  -3   8   3615.36   35.78  0. 1.0000     0.      0.00 
   3  -3   8     47.05    1.07  0. 1.0000     0.      0.00 
   4  -3   8   1099.96   11.13  0. 1.0000     0.      0.00 
   5  -3   8     15.22    0.91  0. 1.0000     0.      0.00 
   6  -3   8    108.61    4.36  0. 1.0000     0.      0.00 
   7  -3   8     53.14    2.45  0. 1.0000     0.      0.00 
   8  -3   8     26.75    2.10  0. 1.0000     0.      0.00 
   9  -3   8    156.99    3.42  0. 1.0000     0.      0.00 
  10  -3   8     28.03    3.50  0. 1.0000     0.      0.00 
  11  -3   8    119.89    6.44  0. 1.0000     0.      0.00 
  12  -3   8     30.25    9.29  0. 1.0000     0.      0.00 
  13  -3   8     15.03   12.48  0. 1.0000     0.      0.00 
  14  -3   8      3.26   26.72  0. 1.0000     0.      0.00 
 -13  -2   8      7.43   24.02  0. 1.0000     0.      0.00 
 -12  -2   8     65.72   11.35  0. 1.0000     0.      0.00 
 -11  -2   8      0.00   21.91  0. 1.0000     0.      0.00 
 -10  -2   8     65.09   16.90  0. 1.0000     0.      0.00 
  -9  -2   8    102.32    5.76  0. 1.0000     0.      0.00 
  -8  -2   8     99.93    4.40  0. 1.0000     0.      0.00 
  -7  -2   8    144.46    3.31  0. 1.0000     0.      0.00 
  -6  -2   8    213.14    6.30  0. 1.0000     0.      0.00 
  -5  -2   8    435.75    4.35  0. 1.0000     0.      0.00 
  -4  -2   8    296.85    4.32  0. 1.0000     0.      0.00 
  -3  -2   8     52.45    1.61  0. 1.0000     0.      0.00 
  -2  -2   8    429.07    4.97  0. 1.0000     0.      0.00 
  -1  -2   8    263.06    3.26  0. 1.0000     0.      0.00 
   0  -2   8   1626.63   16.08  0. 1.0000     0.      0.00 
   1  -2   8     19.40    0.66  0. 1.0000     0.      0.00 
   2  -2   8   1361.76   19.06  0. 1.0000     0.      0.00 
   3  -2   8    257.98    3.06  0. 1.0000     0.      0.00 
   4  -2   8     85.51    2.26  0. 1.0000     0.      0.00 
   5  -2   8      4.01    0.89  0. 1.0000     0.      0.00 
   6  -2   8    242.96    4.11  0. 1.0000     0.      0.00 
   7  -2   8    534.19    6.17  0. 1.0000     0.      0.00 
   8  -2   8    663.81    8.35  0. 1.0000     0.      0.00 
   9  -2   8    173.45    4.69  0. 1.0000     0.      0.00 
  10  -2   8     31.73    6.57  0. 1.0000     0.      0.00 
  11  -2   8     95.25   22.64  0. 1.0000     0.      0.00 
  12  -2   8      0.00   20.54  0. 1.0000     0.      0.00 
  13  -2   8      7.85   18.75  0. 1.0000     0.      0.00 
 -13  -1   8      0.00   45.25  0. 1.0000     0.      0.00 
 -12  -1   8    194.19   13.26  0. 1.0000     0.      0.00 
 -11  -1   8    221.62   10.00  0. 1.0000     0.      0.00 
 -10  -1   8      0.36    4.34  0. 1.0000     0.      0.00 
  -9  -1   8    394.31    8.00  0. 1.0000     0.      0.00 
  -8  -1   8      5.95    3.22  0. 1.0000     0.      0.00 
  -7  -1   8     97.46    2.60  0. 1.0000     0.      0.00 
  -6  -1   8      4.76    1.66  0. 1.0000     0.      0.00 
  -5  -1   8    538.55    5.75  0. 1.0000     0.      0.00 
  -4  -1   8   1032.00   11.38  0. 1.0000     0.      0.00 
  -3  -1   8    599.36    6.66  0. 1.0000     0.      0.00 
  -2  -1   8    900.48    9.14  0. 1.0000     0.      0.00 
  -1  -1   8    315.44    4.41  0. 1.0000     0.      0.00 
   0  -1   8      1.59    1.04  0. 1.0000     0.      0.00 
   1  -1   8    196.40    2.63  0. 1.0000     0.      0.00 
   2  -1   8    822.28    8.14  0. 1.0000     0.      0.00 
   3  -1   8    275.62    2.86  0. 1.0000     0.      0.00 
   4  -1   8    720.78    7.24  0. 1.0000     0.      0.00 
   5  -1   8    189.93    2.47  0. 1.0000     0.      0.00 
   6  -1   8     29.98    1.69  0. 1.0000     0.      0.00 
   7  -1   8    784.85   10.56  0. 1.0000     0.      0.00 
   8  -1   8     32.39    6.90  0. 1.0000     0.      0.00 
   9  -1   8    368.76   28.75  0. 1.0000     0.      0.00 
  10  -1   8     29.34    6.78  0. 1.0000     0.      0.00 
  11  -1   8     15.29    8.01  0. 1.0000     0.      0.00 
  12  -1   8    101.00    6.16  0. 1.0000     0.      0.00 
  13  -1   8      7.80    5.69  0. 1.0000     0.      0.00 
 -13   0   8     38.52    7.98  0. 1.0000     0.      0.00 
 -12   0   8      2.77    5.18  0. 1.0000     0.      0.00 
 -11   0   8      0.00    4.28  0. 1.0000     0.      0.00 
 -10   0   8      3.74    3.12  0. 1.0000     0.      0.00 
  -9   0   8     12.08    4.17  0. 1.0000     0.      0.00 
  -8   0   8     53.29    3.51  0. 1.0000     0.      0.00 
  -7   0   8    680.77    9.38  0. 1.0000     0.      0.00 
  -6   0   8      1.22    1.50  0. 1.0000     0.      0.00 
  -5   0   8   1994.49   24.15  0. 1.0000     0.      0.00 
  -4   0   8    265.54    3.85  0. 1.0000     0.      0.00 
  -3   0   8   1103.60   12.76  0. 1.0000     0.      0.00 
  -2   0   8    152.46    2.28  0. 1.0000     0.      0.00 
  -1   0   8      1.86    0.69  0. 1.0000     0.      0.00 
   0   0   8     25.75    0.78  0. 1.0000     0.      0.00 
   1   0   8     14.62    0.75  0. 1.0000     0.      0.00 
   2   0   8    175.74    2.28  0. 1.0000     0.      0.00 
   3   0   8    997.15   11.15  0. 1.0000     0.      0.00 
   4   0   8    318.74    4.09  0. 1.0000     0.      0.00 
   5   0   8   1541.35   17.09  0. 1.0000     0.      0.00 
   6   0   8      5.59    0.88  0. 1.0000     0.      0.00 
   7   0   8    409.89    6.03  0. 1.0000     0.      0.00 
   8   0   8      3.86    2.88  0. 1.0000     0.      0.00 
   9   0   8      0.00    3.29  0. 1.0000     0.      0.00 
  10   0   8    106.49    4.04  0. 1.0000     0.      0.00 
  11   0   8    145.78    5.90  0. 1.0000     0.      0.00 
  12   0   8     12.70    5.44  0. 1.0000     0.      0.00 
  13   0   8     17.24   10.78  0. 1.0000     0.      0.00 
 -13   1   8     24.90    7.05  0. 1.0000     0.      0.00 
 -12   1   8      7.89    6.24  0. 1.0000     0.      0.00 
 -11   1   8    315.18   10.12  0. 1.0000     0.      0.00 
 -10   1   8     47.29    6.45  0. 1.0000     0.      0.00 
  -8   1   8     75.07    7.31  0. 1.0000     0.      0.00 
  -7   1   8    626.30   10.21  0. 1.0000     0.      0.00 
  -6   1   8    280.37    3.63  0. 1.0000     0.      0.00 
  -5   1   8     16.24    1.22  0. 1.0000     0.      0.00 
  -4   1   8    143.41    3.52  0. 1.0000     0.      0.00 
  -3   1   8     44.09    1.45  0. 1.0000     0.      0.00 
  -2   1   8    246.54    4.85  0. 1.0000     0.      0.00 
  -1   1   8    219.15    2.73  0. 1.0000     0.      0.00 
   0   1   8     44.80    1.12  0. 1.0000     0.      0.00 
   1   1   8    493.71    5.82  0. 1.0000     0.      0.00 
   2   1   8   1239.18   12.80  0. 1.0000     0.      0.00 
   3   1   8    120.58    1.84  0. 1.0000     0.      0.00 
   4   1   8    619.03    6.96  0. 1.0000     0.      0.00 
   5   1   8     43.89    5.37  0. 1.0000     0.      0.00 
   6   1   8     11.11    1.90  0. 1.0000     0.      0.00 
   7   1   8     76.89    2.99  0. 1.0000     0.      0.00 
   8   1   8     28.96    4.23  0. 1.0000     0.      0.00 
   9   1   8      5.75    3.03  0. 1.0000     0.      0.00 
  10   1   8    183.48    5.57  0. 1.0000     0.      0.00 
  11   1   8    166.29   12.40  0. 1.0000     0.      0.00 
  12   1   8     90.83   14.88  0. 1.0000     0.      0.00 
  13   1   8     35.85   33.42  0. 1.0000     0.      0.00 
 -13   2   8     95.42   12.12  0. 1.0000     0.      0.00 
 -12   2   8     19.34   23.86  0. 1.0000     0.      0.00 
 -11   2   8     65.96   15.88  0. 1.0000     0.      0.00 
 -10   2   8     28.16    6.06  0. 1.0000     0.      0.00 
  -9   2   8    283.08    5.58  0. 1.0000     0.      0.00 
  -8   2   8    179.28    5.06  0. 1.0000     0.      0.00 
  -7   2   8    107.85    3.43  0. 1.0000     0.      0.00 
  -6   2   8    449.96    5.27  0. 1.0000     0.      0.00 
  -5   2   8      2.70    1.00  0. 1.0000     0.      0.00 
  -4   2   8    343.89    3.69  0. 1.0000     0.      0.00 
  -3   2   8    165.98    2.57  0. 1.0000     0.      0.00 
  -2   2   8   3048.09   30.43  0. 1.0000     0.      0.00 
  -1   2   8      9.80    0.56  0. 1.0000     0.      0.00 
   0   2   8   2041.69   19.02  0. 1.0000     0.      0.00 
   1   2   8    220.67    8.56  0. 1.0000     0.      0.00 
   2   2   8    417.53    4.32  0. 1.0000     0.      0.00 
   3   2   8      4.34    1.25  0. 1.0000     0.      0.00 
   4   2   8     83.35    2.50  0. 1.0000     0.      0.00 
   5   2   8     14.85    1.28  0. 1.0000     0.      0.00 
   6   2   8    219.12    4.65  0. 1.0000     0.      0.00 
   7   2   8    545.42    6.95  0. 1.0000     0.      0.00 
   8   2   8     56.46    3.66  0. 1.0000     0.      0.00 
   9   2   8      3.86    7.08  0. 1.0000     0.      0.00 
  10   2   8     24.19   14.20  0. 1.0000     0.      0.00 
  11   2   8      0.00   41.71  0. 1.0000     0.      0.00 
  12   2   8     19.88   16.39  0. 1.0000     0.      0.00 
 -14   3   8      6.75   28.75  0. 1.0000     0.      0.00 
 -13   3   8     28.76   13.47  0. 1.0000     0.      0.00 
 -12   3   8     60.65   11.18  0. 1.0000     0.      0.00 
 -11   3   8      0.00    5.55  0. 1.0000     0.      0.00 
 -10   3   8    166.95    3.85  0. 1.0000     0.      0.00 
  -9   3   8    105.10    3.05  0. 1.0000     0.      0.00 
  -8   3   8     31.10    1.96  0. 1.0000     0.      0.00 
  -7   3   8    177.40    2.90  0. 1.0000     0.      0.00 
  -6   3   8    826.32    8.86  0. 1.0000     0.      0.00 
  -5   3   8     14.58    1.52  0. 1.0000     0.      0.00 
  -4   3   8   1386.01   15.44  0. 1.0000     0.      0.00 
  -3   3   8     42.64    1.08  0. 1.0000     0.      0.00 
  -2   3   8   2247.19   21.87  0. 1.0000     0.      0.00 
  -1   3   8    440.21    4.73  0. 1.0000     0.      0.00 
   0   3   8    885.20   10.94  0. 1.0000     0.      0.00 
   1   3   8    290.61    7.89  0. 1.0000     0.      0.00 
   2   3   8     78.01    1.28  0. 1.0000     0.      0.00 
   3   3   8    102.08    3.66  0. 1.0000     0.      0.00 
   4   3   8      3.21    2.13  0. 1.0000     0.      0.00 
   5   3   8    512.89    8.57  0. 1.0000     0.      0.00 
   6   3   8     13.43    3.66  0. 1.0000     0.      0.00 
   7   3   8     80.34   16.27  0. 1.0000     0.      0.00 
   8   3   8     70.81   31.11  0. 1.0000     0.      0.00 
   9   3   8      0.00    9.02  0. 1.0000     0.      0.00 
  10   3   8      0.00    7.14  0. 1.0000     0.      0.00 
  11   3   8     24.66    6.23  0. 1.0000     0.      0.00 
  12   3   8      2.25    6.08  0. 1.0000     0.      0.00 
 -14   4   8      5.94    5.94  0. 1.0000     0.      0.00 
 -13   4   8     52.19    5.84  0. 1.0000     0.      0.00 
 -12   4   8      4.96    4.53  0. 1.0000     0.      0.00 
 -11   4   8     86.15    5.04  0. 1.0000     0.      0.00 
 -10   4   8      3.04    3.66  0. 1.0000     0.      0.00 
  -9   4   8      0.00    3.21  0. 1.0000     0.      0.00 
  -8   4   8    258.20    5.14  0. 1.0000     0.      0.00 
  -7   4   8      0.00    5.04  0. 1.0000     0.      0.00 
  -6   4   8   1536.39   23.69  0. 1.0000     0.      0.00 
  -5   4   8    332.48    5.26  0. 1.0000     0.      0.00 
  -4   4   8   1771.39   20.45  0. 1.0000     0.      0.00 
  -3   4   8    206.68    4.87  0. 1.0000     0.      0.00 
  -2   4   8     11.12    0.98  0. 1.0000     0.      0.00 
  -1   4   8      7.96    1.48  0. 1.0000     0.      0.00 
   0   4   8     63.75    1.68  0. 1.0000     0.      0.00 
   1   4   8    368.11    7.53  0. 1.0000     0.      0.00 
   2   4   8    129.62    2.18  0. 1.0000     0.      0.00 
   3   4   8     88.11    1.99  0. 1.0000     0.      0.00 
   4   4   8    129.74    3.99  0. 1.0000     0.      0.00 
   5   4   8    440.59   13.53  0. 1.0000     0.      0.00 
   6   4   8      3.30    3.10  0. 1.0000     0.      0.00 
   7   4   8    253.18    4.85  0. 1.0000     0.      0.00 
   8   4   8     11.54    3.51  0. 1.0000     0.      0.00 
   9   4   8    176.28    5.43  0. 1.0000     0.      0.00 
  10   4   8    121.26    7.59  0. 1.0000     0.      0.00 
  11   4   8      5.72    6.21  0. 1.0000     0.      0.00 
 -13   5   8      0.00    6.77  0. 1.0000     0.      0.00 
 -12   5   8     22.12    7.30  0. 1.0000     0.      0.00 
 -11   5   8     24.85    9.06  0. 1.0000     0.      0.00 
 -10   5   8    272.05   21.95  0. 1.0000     0.      0.00 
  -9   5   8      0.00    7.90  0. 1.0000     0.      0.00 
  -8   5   8    158.00    4.77  0. 1.0000     0.      0.00 
  -7   5   8      0.00    2.20  0. 1.0000     0.      0.00 
  -6   5   8      0.69    2.65  0. 1.0000     0.      0.00 
  -5   5   8      0.00    1.70  0. 1.0000     0.      0.00 
  -4   5   8      0.00    4.62  0. 1.0000     0.      0.00 
  -3   5   8     35.08    1.33  0. 1.0000     0.      0.00 
  -2   5   8     34.50    1.44  0. 1.0000     0.      0.00 
  -1   5   8    115.85    3.19  0. 1.0000     0.      0.00 
   0   5   8      0.00    1.06  0. 1.0000     0.      0.00 
   1   5   8   2103.97   25.89  0. 1.0000     0.      0.00 
   2   5   8    228.50    6.51  0. 1.0000     0.      0.00 
   3   5   8   1329.03   14.87  0. 1.0000     0.      0.00 
   4   5   8     31.76    2.15  0. 1.0000     0.      0.00 
   5   5   8    171.96    3.27  0. 1.0000     0.      0.00 
   6   5   8     67.91    6.49  0. 1.0000     0.      0.00 
   7   5   8      0.00    2.74  0. 1.0000     0.      0.00 
   8   5   8    120.83    4.31  0. 1.0000     0.      0.00 
   9   5   8      9.96    6.06  0. 1.0000     0.      0.00 
  10   5   8     50.30   12.88  0. 1.0000     0.      0.00 
  11   5   8      3.29   19.82  0. 1.0000     0.      0.00 
 -13   6   8      0.00   43.81  0. 1.0000     0.      0.00 
 -11   6   8     83.93    9.29  0. 1.0000     0.      0.00 
 -10   6   8      0.00    5.88  0. 1.0000     0.      0.00 
  -9   6   8      0.00    3.14  0. 1.0000     0.      0.00 
  -8   6   8     14.37    3.78  0. 1.0000     0.      0.00 
  -7   6   8    112.71    1.94  0. 1.0000     0.      0.00 
  -6   6   8     71.26    1.93  0. 1.0000     0.      0.00 
  -5   6   8     12.02    1.92  0. 1.0000     0.      0.00 
  -4   6   8    173.97    3.18  0. 1.0000     0.      0.00 
  -3   6   8   1386.21   15.87  0. 1.0000     0.      0.00 
  -2   6   8    253.94    3.90  0. 1.0000     0.      0.00 
  -1   6   8   1242.29   14.42  0. 1.0000     0.      0.00 
   0   6   8     30.55    2.16  0. 1.0000     0.      0.00 
   1   6   8    520.58    6.10  0. 1.0000     0.      0.00 
   2   6   8      0.00    3.07  0. 1.0000     0.      0.00 
   3   6   8    193.70    3.01  0. 1.0000     0.      0.00 
   4   6   8     29.49    1.75  0. 1.0000     0.      0.00 
   5   6   8     10.69    3.37  0. 1.0000     0.      0.00 
   6   6   8    102.35    5.66  0. 1.0000     0.      0.00 
   7   6   8      0.00    4.78  0. 1.0000     0.      0.00 
   8   6   8     47.00   16.94  0. 1.0000     0.      0.00 
   9   6   8     28.15   27.43  0. 1.0000     0.      0.00 
 -13   7   8      9.17   13.30  0. 1.0000     0.      0.00 
 -12   7   8     86.08    8.12  0. 1.0000     0.      0.00 
 -11   7   8      8.56    5.55  0. 1.0000     0.      0.00 
 -10   7   8    189.51    4.35  0. 1.0000     0.      0.00 
  -9   7   8      6.04    2.67  0. 1.0000     0.      0.00 
  -8   7   8    130.23    3.60  0. 1.0000     0.      0.00 
  -7   7   8     34.40    2.77  0. 1.0000     0.      0.00 
  -6   7   8      3.75    2.79  0. 1.0000     0.      0.00 
  -5   7   8     82.75   10.74  0. 1.0000     0.      0.00 
  -4   7   8    200.21    6.82  0. 1.0000     0.      0.00 
  -3   7   8    215.67    4.25  0. 1.0000     0.      0.00 
  -2   7   8     11.58    2.99  0. 1.0000     0.      0.00 
  -1   7   8    568.20    7.02  0. 1.0000     0.      0.00 
   0   7   8     32.51    2.27  0. 1.0000     0.      0.00 
   1   7   8      0.00    2.77  0. 1.0000     0.      0.00 
   2   7   8      0.00    2.21  0. 1.0000     0.      0.00 
   3   7   8      3.44    2.99  0. 1.0000     0.      0.00 
   4   7   8    583.36    7.29  0. 1.0000     0.      0.00 
   5   7   8    165.76    9.85  0. 1.0000     0.      0.00 
   6   7   8    119.12   41.60  0. 1.0000     0.      0.00 
   8   7   8     19.16   12.15  0. 1.0000     0.      0.00 
   9   7   8      8.00    9.78  0. 1.0000     0.      0.00 
  10   7   8     10.06    9.20  0. 1.0000     0.      0.00 
 -13   8   8      4.30    5.69  0. 1.0000     0.      0.00 
 -12   8   8    139.83    5.49  0. 1.0000     0.      0.00 
 -11   8   8     22.67    7.93  0. 1.0000     0.      0.00 
 -10   8   8      3.25    5.94  0. 1.0000     0.      0.00 
  -9   8   8      0.80    9.68  0. 1.0000     0.      0.00 
  -8   8   8     36.74   38.08  0. 1.0000     0.      0.00 
  -7   8   8     11.92   10.68  0. 1.0000     0.      0.00 
  -6   8   8     23.41    4.02  0. 1.0000     0.      0.00 
  -5   8   8    171.18    4.25  0. 1.0000     0.      0.00 
  -4   8   8     22.44    3.63  0. 1.0000     0.      0.00 
  -3   8   8     13.23    2.52  0. 1.0000     0.      0.00 
  -2   8   8     79.92    2.09  0. 1.0000     0.      0.00 
  -1   8   8     53.54    2.47  0. 1.0000     0.      0.00 
   0   8   8     92.10    2.79  0. 1.0000     0.      0.00 
   1   8   8    127.75    8.16  0. 1.0000     0.      0.00 
   2   8   8     26.27    4.24  0. 1.0000     0.      0.00 
   3   8   8      0.00   18.07  0. 1.0000     0.      0.00 
   5   8   8      7.39    9.68  0. 1.0000     0.      0.00 
   6   8   8    289.23   10.57  0. 1.0000     0.      0.00 
   7   8   8     11.88    6.70  0. 1.0000     0.      0.00 
   8   8   8     51.67    7.92  0. 1.0000     0.      0.00 
   9   8   8     37.62    7.49  0. 1.0000     0.      0.00 
 -12   9   8      9.71   17.69  0. 1.0000     0.      0.00 
 -11   9   8     20.40   30.36  0. 1.0000     0.      0.00 
  -9   9   8     38.12   10.28  0. 1.0000     0.      0.00 
  -8   9   8    241.30    6.00  0. 1.0000     0.      0.00 
  -7   9   8    133.11    4.90  0. 1.0000     0.      0.00 
  -6   9   8    131.40    3.51  0. 1.0000     0.      0.00 
  -5   9   8    103.33    2.61  0. 1.0000     0.      0.00 
  -4   9   8      2.00    2.75  0. 1.0000     0.      0.00 
  -3   9   8      0.00    4.55  0. 1.0000     0.      0.00 
  -2   9   8      0.00    4.17  0. 1.0000     0.      0.00 
  -1   9   8     37.58    4.42  0. 1.0000     0.      0.00 
   0   9   8    198.74   29.64  0. 1.0000     0.      0.00 
   1   9   8      0.00   22.91  0. 1.0000     0.      0.00 
   2   9   8    387.07   13.75  0. 1.0000     0.      0.00 
   3   9   8      0.00    3.98  0. 1.0000     0.      0.00 
   4   9   8     10.84    5.13  0. 1.0000     0.      0.00 
   5   9   8      6.19    5.80  0. 1.0000     0.      0.00 
   6   9   8     15.98    4.97  0. 1.0000     0.      0.00 
   7   9   8    132.04    7.61  0. 1.0000     0.      0.00 
   8   9   8     15.86   10.23  0. 1.0000     0.      0.00 
 -12  10   8    158.36   17.22  0. 1.0000     0.      0.00 
 -11  10   8     34.54   10.16  0. 1.0000     0.      0.00 
 -10  10   8     39.82    7.39  0. 1.0000     0.      0.00 
  -9  10   8     94.42    6.33  0. 1.0000     0.      0.00 
  -8  10   8      6.58    2.89  0. 1.0000     0.      0.00 
  -7  10   8     62.58    3.97  0. 1.0000     0.      0.00 
  -6  10   8      0.00    3.70  0. 1.0000     0.      0.00 
  -5  10   8     13.66    3.86  0. 1.0000     0.      0.00 
  -4  10   8      0.00    7.02  0. 1.0000     0.      0.00 
  -3  10   8      0.00   43.26  0. 1.0000     0.      0.00 
  -2  10   8     19.91   26.19  0. 1.0000     0.      0.00 
  -1  10   8    229.77    8.72  0. 1.0000     0.      0.00 
   0  10   8      5.96    3.94  0. 1.0000     0.      0.00 
   1  10   8    117.82    4.32  0. 1.0000     0.      0.00 
   2  10   8     30.99    3.49  0. 1.0000     0.      0.00 
   3  10   8     25.05    3.68  0. 1.0000     0.      0.00 
   4  10   8     19.34    6.05  0. 1.0000     0.      0.00 
   5  10   8      0.00    7.64  0. 1.0000     0.      0.00 
   6  10   8      9.24   11.43  0. 1.0000     0.      0.00 
   7  10   8     52.04   22.48  0. 1.0000     0.      0.00 
 -11  11   8     74.63    5.85  0. 1.0000     0.      0.00 
 -10  11   8     18.90    5.17  0. 1.0000     0.      0.00 
  -9  11   8     40.43    7.94  0. 1.0000     0.      0.00 
  -8  11   8      6.55   10.42  0. 1.0000     0.      0.00 
  -7  11   8     16.41   12.47  0. 1.0000     0.      0.00 
  -5  11   8    375.91   45.12  0. 1.0000     0.      0.00 
  -4  11   8     91.37    9.18  0. 1.0000     0.      0.00 
  -3  11   8    145.93    6.57  0. 1.0000     0.      0.00 
  -2  11   8      5.54    3.99  0. 1.0000     0.      0.00 
  -1  11   8      0.00    3.74  0. 1.0000     0.      0.00 
   0  11   8      5.05    3.20  0. 1.0000     0.      0.00 
   1  11   8      9.97    4.96  0. 1.0000     0.      0.00 
   2  11   8     14.77    5.35  0. 1.0000     0.      0.00 
   3  11   8     64.14    9.12  0. 1.0000     0.      0.00 
   4  11   8     39.38   17.17  0. 1.0000     0.      0.00 
   5  11   8     54.69   37.04  0. 1.0000     0.      0.00 
   6  11   8      4.33   49.34  0. 1.0000     0.      0.00 
 -10  12   8      2.43   27.69  0. 1.0000     0.      0.00 
  -8  12   8     46.30   32.48  0. 1.0000     0.      0.00 
  -7  12   8     80.64   17.87  0. 1.0000     0.      0.00 
  -6  12   8      8.17    8.03  0. 1.0000     0.      0.00 
  -5  12   8     62.21    6.30  0. 1.0000     0.      0.00 
  -4  12   8     54.94    5.01  0. 1.0000     0.      0.00 
  -3  12   8    120.67    4.24  0. 1.0000     0.      0.00 
  -2  12   8     24.76    4.49  0. 1.0000     0.      0.00 
  -1  12   8      0.00    5.66  0. 1.0000     0.      0.00 
   0  12   8     10.55    8.37  0. 1.0000     0.      0.00 
   1  12   8     11.94   17.21  0. 1.0000     0.      0.00 
   3  12   8      0.00   37.15  0. 1.0000     0.      0.00 
   4  12   8     27.43   17.89  0. 1.0000     0.      0.00 
  -9  13   8     30.53   12.04  0. 1.0000     0.      0.00 
  -8  13   8     78.34   10.75  0. 1.0000     0.      0.00 
  -7  13   8     50.84    6.03  0. 1.0000     0.      0.00 
  -6  13   8     39.73    4.24  0. 1.0000     0.      0.00 
  -5  13   8      0.00    5.30  0. 1.0000     0.      0.00 
  -4  13   8      0.00    6.65  0. 1.0000     0.      0.00 
  -3  13   8     17.10   12.62  0. 1.0000     0.      0.00 
  -2  13   8     46.11   29.64  0. 1.0000     0.      0.00 
   1  13   8     74.31   17.50  0. 1.0000     0.      0.00 
   2  13   8     18.86   13.31  0. 1.0000     0.      0.00 
  -7  14   8     21.73   12.58  0. 1.0000     0.      0.00 
  -6  14   8      3.13   18.81  0. 1.0000     0.      0.00 
  -4  14   8    129.84   72.48  0. 1.0000     0.      0.00 
  -3  14   8     25.35   27.44  0. 1.0000     0.      0.00 
  -2  14   8     72.80   19.54  0. 1.0000     0.      0.00 
  -1  14   8     38.36   13.58  0. 1.0000     0.      0.00 
   0  14   8    125.14    9.18  0. 1.0000     0.      0.00 
  -1 -14   9     22.20    6.41  0. 1.0000     0.      0.00 
   0 -14   9      0.00    6.86  0. 1.0000     0.      0.00 
   1 -14   9     13.52    8.41  0. 1.0000     0.      0.00 
   2 -14   9     13.25   14.23  0. 1.0000     0.      0.00 
   3 -14   9      0.00   35.80  0. 1.0000     0.      0.00 
   5 -14   9      0.00   19.56  0. 1.0000     0.      0.00 
   6 -14   9     21.60   11.38  0. 1.0000     0.      0.00 
   7 -14   9     62.81    8.56  0. 1.0000     0.      0.00 
  -3 -13   9      9.78    8.06  0. 1.0000     0.      0.00 
  -2 -13   9      0.00    8.81  0. 1.0000     0.      0.00 
  -1 -13   9     65.54   12.93  0. 1.0000     0.      0.00 
   0 -13   9     42.33   57.46  0. 1.0000     0.      0.00 
   2 -13   9    157.82   17.11  0. 1.0000     0.      0.00 
   3 -13   9     40.07    8.03  0. 1.0000     0.      0.00 
   4 -13   9    153.31    6.72  0. 1.0000     0.      0.00 
   5 -13   9      6.72    4.90  0. 1.0000     0.      0.00 
   6 -13   9    113.50    5.14  0. 1.0000     0.      0.00 
   7 -13   9    148.74    6.23  0. 1.0000     0.      0.00 
   8 -13   9     15.41    8.68  0. 1.0000     0.      0.00 
   9 -13   9      0.00   14.21  0. 1.0000     0.      0.00 
  -5 -12   9     39.86   12.15  0. 1.0000     0.      0.00 
  -4 -12   9     44.15   12.18  0. 1.0000     0.      0.00 
  -3 -12   9     18.41   42.54  0. 1.0000     0.      0.00 
  -2 -12   9     36.73   65.98  0. 1.0000     0.      0.00 
  -1 -12   9    219.82   15.15  0. 1.0000     0.      0.00 
   0 -12   9    399.66   10.59  0. 1.0000     0.      0.00 
   1 -12   9     22.47    6.52  0. 1.0000     0.      0.00 
   2 -12   9     63.28    7.16  0. 1.0000     0.      0.00 
   3 -12   9    130.50    5.02  0. 1.0000     0.      0.00 
   4 -12   9     48.94    4.52  0. 1.0000     0.      0.00 
   5 -12   9      5.59    6.16  0. 1.0000     0.      0.00 
   6 -12   9      0.00    8.39  0. 1.0000     0.      0.00 
   7 -12   9     91.92   14.71  0. 1.0000     0.      0.00 
   8 -12   9      0.00   24.92  0. 1.0000     0.      0.00 
   9 -12   9    101.14   38.98  0. 1.0000     0.      0.00 
  10 -12   9     11.96   18.94  0. 1.0000     0.      0.00 
  -6 -11   9     11.03   34.63  0. 1.0000     0.      0.00 
  -5 -11   9      0.00   48.45  0. 1.0000     0.      0.00 
  -4 -11   9     27.31   16.23  0. 1.0000     0.      0.00 
  -3 -11   9    156.55    7.38  0. 1.0000     0.      0.00 
  -2 -11   9      0.00    8.16  0. 1.0000     0.      0.00 
  -1 -11   9    566.96    9.44  0. 1.0000     0.      0.00 
   0 -11   9    169.66    4.06  0. 1.0000     0.      0.00 
   1 -11   9      0.00    3.47  0. 1.0000     0.      0.00 
   2 -11   9    569.17    9.05  0. 1.0000     0.      0.00 
   3 -11   9      0.00    5.38  0. 1.0000     0.      0.00 
   4 -11   9      0.00    7.07  0. 1.0000     0.      0.00 
   5 -11   9    699.61   30.06  0. 1.0000     0.      0.00 
   6 -11   9      0.00   30.24  0. 1.0000     0.      0.00 
   7 -11   9     85.41   14.77  0. 1.0000     0.      0.00 
   8 -11   9     15.21    7.35  0. 1.0000     0.      0.00 
   9 -11   9     15.03    5.93  0. 1.0000     0.      0.00 
  10 -11   9    136.68    5.98  0. 1.0000     0.      0.00 
  11 -11   9     66.72    5.53  0. 1.0000     0.      0.00 
  -7 -10   9     11.18   21.04  0. 1.0000     0.      0.00 
  -6 -10   9     60.95    9.93  0. 1.0000     0.      0.00 
  -5 -10   9    531.57   11.43  0. 1.0000     0.      0.00 
  -4 -10   9     18.74    6.22  0. 1.0000     0.      0.00 
  -3 -10   9     58.35    3.34  0. 1.0000     0.      0.00 
  -2 -10   9    317.11    6.45  0. 1.0000     0.      0.00 
  -1 -10   9      1.36    3.59  0. 1.0000     0.      0.00 
   0 -10   9      0.00    3.83  0. 1.0000     0.      0.00 
   1 -10   9    177.79    6.15  0. 1.0000     0.      0.00 
   2 -10   9    290.42   17.07  0. 1.0000     0.      0.00 
   3 -10   9    138.85   40.05  0. 1.0000     0.      0.00 
   4 -10   9      0.00    5.48  0. 1.0000     0.      0.00 
   5 -10   9     23.18    4.60  0. 1.0000     0.      0.00 
   6 -10   9    119.91    4.29  0. 1.0000     0.      0.00 
   7 -10   9     42.05    3.46  0. 1.0000     0.      0.00 
   8 -10   9      1.23    3.33  0. 1.0000     0.      0.00 
   9 -10   9    150.57    5.69  0. 1.0000     0.      0.00 
  10 -10   9     87.21    8.41  0. 1.0000     0.      0.00 
  11 -10   9    139.68   10.15  0. 1.0000     0.      0.00 
  12 -10   9      6.93   15.93  0. 1.0000     0.      0.00 
  -8  -9   9     21.20    8.35  0. 1.0000     0.      0.00 
  -7  -9   9     70.12    7.17  0. 1.0000     0.      0.00 
  -6  -9   9    207.24    7.50  0. 1.0000     0.      0.00 
  -5  -9   9    242.16    7.36  0. 1.0000     0.      0.00 
  -4  -9   9      0.45    4.14  0. 1.0000     0.      0.00 
  -3  -9   9      5.40    3.79  0. 1.0000     0.      0.00 
  -2  -9   9    194.28    5.90  0. 1.0000     0.      0.00 
  -1  -9   9    123.78   20.94  0. 1.0000     0.      0.00 
   0  -9   9    177.22   47.39  0. 1.0000     0.      0.00 
   1  -9   9    616.76    8.80  0. 1.0000     0.      0.00 
   2  -9   9    324.62    5.47  0. 1.0000     0.      0.00 
   3  -9   9    211.30    3.92  0. 1.0000     0.      0.00 
   4  -9   9      5.08    2.38  0. 1.0000     0.      0.00 
   5  -9   9   1156.31   12.33  0. 1.0000     0.      0.00 
   6  -9   9    149.91    3.87  0. 1.0000     0.      0.00 
   7  -9   9    363.54    6.18  0. 1.0000     0.      0.00 
   8  -9   9    121.37    6.42  0. 1.0000     0.      0.00 
   9  -9   9     10.27   10.57  0. 1.0000     0.      0.00 
  10  -9   9      0.00   23.42  0. 1.0000     0.      0.00 
  11  -9   9     41.82   37.27  0. 1.0000     0.      0.00 
  12  -9   9     13.41   14.99  0. 1.0000     0.      0.00 
  -9  -8   9     93.02    7.42  0. 1.0000     0.      0.00 
  -8  -8   9    129.84    7.07  0. 1.0000     0.      0.00 
  -7  -8   9     14.32    6.61  0. 1.0000     0.      0.00 
  -6  -8   9     12.71    7.15  0. 1.0000     0.      0.00 
  -5  -8   9    201.96    7.44  0. 1.0000     0.      0.00 
  -4  -8   9     72.72   27.76  0. 1.0000     0.      0.00 
  -3  -8   9      4.34   18.95  0. 1.0000     0.      0.00 
  -2  -8   9    543.21    8.17  0. 1.0000     0.      0.00 
  -1  -8   9     52.16    3.17  0. 1.0000     0.      0.00 
   0  -8   9    278.69    7.61  0. 1.0000     0.      0.00 
   1  -8   9    257.34    3.93  0. 1.0000     0.      0.00 
   2  -8   9    269.05    3.65  0. 1.0000     0.      0.00 
   3  -8   9    169.44    3.04  0. 1.0000     0.      0.00 
   4  -8   9      4.07    2.49  0. 1.0000     0.      0.00 
   5  -8   9    822.08   10.09  0. 1.0000     0.      0.00 
   6  -8   9    170.14    6.20  0. 1.0000     0.      0.00 
   7  -8   9    108.37   12.10  0. 1.0000     0.      0.00 
   8  -8   9    445.87   28.73  0. 1.0000     0.      0.00 
   9  -8   9     20.22    7.72  0. 1.0000     0.      0.00 
  10  -8   9     10.75    7.10  0. 1.0000     0.      0.00 
  11  -8   9     40.55    6.91  0. 1.0000     0.      0.00 
  12  -8   9     19.54    6.00  0. 1.0000     0.      0.00 
  13  -8   9     16.03    5.26  0. 1.0000     0.      0.00 
 -10  -7   9    115.65    9.46  0. 1.0000     0.      0.00 
  -9  -7   9      3.71    9.12  0. 1.0000     0.      0.00 
  -8  -7   9    153.55   11.73  0. 1.0000     0.      0.00 
  -7  -7   9     63.01   22.89  0. 1.0000     0.      0.00 
  -6  -7   9      0.00   29.82  0. 1.0000     0.      0.00 
  -5  -7   9    328.15    8.25  0. 1.0000     0.      0.00 
  -4  -7   9    620.79    9.61  0. 1.0000     0.      0.00 
  -3  -7   9     58.51    3.54  0. 1.0000     0.      0.00 
  -2  -7   9   1576.95   16.31  0. 1.0000     0.      0.00 
  -1  -7   9     70.16    2.10  0. 1.0000     0.      0.00 
   0  -7   9    225.14    3.71  0. 1.0000     0.      0.00 
   1  -7   9   1630.67   17.43  0. 1.0000     0.      0.00 
   2  -7   9      2.07    2.27  0. 1.0000     0.      0.00 
   3  -7   9      0.00    5.22  0. 1.0000     0.      0.00 
   4  -7   9   1579.66   26.92  0. 1.0000     0.      0.00 
   5  -7   9    199.25    9.77  0. 1.0000     0.      0.00 
   6  -7   9      7.41    2.97  0. 1.0000     0.      0.00 
   7  -7   9     71.68    3.19  0. 1.0000     0.      0.00 
   8  -7   9    168.62    4.62  0. 1.0000     0.      0.00 
   9  -7   9     96.58    3.24  0. 1.0000     0.      0.00 
  10  -7   9    195.35    4.89  0. 1.0000     0.      0.00 
  11  -7   9      4.49    5.10  0. 1.0000     0.      0.00 
  12  -7   9     67.21    7.66  0. 1.0000     0.      0.00 
  13  -7   9     23.13   12.09  0. 1.0000     0.      0.00 
 -10  -6   9     39.99   25.39  0. 1.0000     0.      0.00 
  -9  -6   9    115.05   32.88  0. 1.0000     0.      0.00 
  -8  -6   9     35.35   10.54  0. 1.0000     0.      0.00 
  -7  -6   9    186.88    6.14  0. 1.0000     0.      0.00 
  -6  -6   9    271.42    4.82  0. 1.0000     0.      0.00 
  -5  -6   9     51.50    3.07  0. 1.0000     0.      0.00 
  -4  -6   9     67.01    2.39  0. 1.0000     0.      0.00 
  -3  -6   9    535.42    6.60  0. 1.0000     0.      0.00 
  -2  -6   9      0.00    1.82  0. 1.0000     0.      0.00 
  -1  -6   9     33.63    1.95  0. 1.0000     0.      0.00 
   0  -6   9    110.01    2.35  0. 1.0000     0.      0.00 
   1  -6   9    639.65    9.27  0. 1.0000     0.      0.00 
   2  -6   9     46.43    3.07  0. 1.0000     0.      0.00 
   3  -6   9    458.06   10.20  0. 1.0000     0.      0.00 
   4  -6   9    154.30    3.02  0. 1.0000     0.      0.00 
   5  -6   9    104.70    2.29  0. 1.0000     0.      0.00 
   6  -6   9      0.00    1.60  0. 1.0000     0.      0.00 
   7  -6   9      0.00    1.66  0. 1.0000     0.      0.00 
   8  -6   9   1036.25   11.25  0. 1.0000     0.      0.00 
   9  -6   9    124.13    3.80  0. 1.0000     0.      0.00 
  10  -6   9    765.52   13.27  0. 1.0000     0.      0.00 
  11  -6   9     89.47   13.60  0. 1.0000     0.      0.00 
  12  -6   9     60.56   27.73  0. 1.0000     0.      0.00 
 -11  -5   9     21.74   14.81  0. 1.0000     0.      0.00 
 -10  -5   9    115.64    8.65  0. 1.0000     0.      0.00 
  -9  -5   9    129.32    6.87  0. 1.0000     0.      0.00 
  -8  -5   9     26.60    3.50  0. 1.0000     0.      0.00 
  -7  -5   9    625.44   10.57  0. 1.0000     0.      0.00 
  -6  -5   9    446.34    5.92  0. 1.0000     0.      0.00 
  -5  -5   9    104.81    2.76  0. 1.0000     0.      0.00 
  -4  -5   9    654.61    6.97  0. 1.0000     0.      0.00 
  -3  -5   9     15.51    2.41  0. 1.0000     0.      0.00 
  -2  -5   9    374.28    5.24  0. 1.0000     0.      0.00 
  -1  -5   9   2041.97   28.14  0. 1.0000     0.      0.00 
   0  -5   9    613.99    6.13  0. 1.0000     0.      0.00 
   1  -5   9    577.16    6.16  0. 1.0000     0.      0.00 
   2  -5   9     59.25    1.67  0. 1.0000     0.      0.00 
   3  -5   9     30.80    1.21  0. 1.0000     0.      0.00 
   4  -5   9   1845.50   14.90  0. 1.0000     0.      0.00 
   5  -5   9    190.40    2.61  0. 1.0000     0.      0.00 
   6  -5   9    592.04    6.54  0. 1.0000     0.      0.00 
   7  -5   9     99.71    2.59  0. 1.0000     0.      0.00 
   8  -5   9    296.33    6.16  0. 1.0000     0.      0.00 
   9  -5   9     12.40   10.21  0. 1.0000     0.      0.00 
  10  -5   9      0.89   22.62  0. 1.0000     0.      0.00 
  11  -5   9     14.57   14.88  0. 1.0000     0.      0.00 
  12  -5   9      3.87    8.56  0. 1.0000     0.      0.00 
  13  -5   9     10.74    7.10  0. 1.0000     0.      0.00 
 -12  -4   9     13.60    5.29  0. 1.0000     0.      0.00 
 -11  -4   9    166.87    6.73  0. 1.0000     0.      0.00 
 -10  -4   9      6.81    4.05  0. 1.0000     0.      0.00 
  -9  -4   9    341.64    6.72  0. 1.0000     0.      0.00 
  -8  -4   9     50.88    3.70  0. 1.0000     0.      0.00 
  -7  -4   9      8.81    3.78  0. 1.0000     0.      0.00 
  -6  -4   9    131.98    3.64  0. 1.0000     0.      0.00 
  -5  -4   9    565.99    9.92  0. 1.0000     0.      0.00 
  -4  -4   9    326.17    5.54  0. 1.0000     0.      0.00 
  -3  -4   9     15.90    1.83  0. 1.0000     0.      0.00 
  -2  -4   9     69.56    1.96  0. 1.0000     0.      0.00 
  -1  -4   9   1511.77   14.68  0. 1.0000     0.      0.00 
   0  -4   9    167.86    2.13  0. 1.0000     0.      0.00 
   1  -4   9    332.66    3.34  0. 1.0000     0.      0.00 
   2  -4   9      4.76    0.92  0. 1.0000     0.      0.00 
   3  -4   9    957.34   10.07  0. 1.0000     0.      0.00 
   4  -4   9   1716.65   19.35  0. 1.0000     0.      0.00 
   5  -4   9    620.14    7.01  0. 1.0000     0.      0.00 
   6  -4   9     22.42    1.76  0. 1.0000     0.      0.00 
   7  -4   9    516.55   13.62  0. 1.0000     0.      0.00 
   8  -4   9     35.68    3.27  0. 1.0000     0.      0.00 
   9  -4   9    151.00    4.18  0. 1.0000     0.      0.00 
  10  -4   9    128.24    4.71  0. 1.0000     0.      0.00 
  11  -4   9    126.61    7.02  0. 1.0000     0.      0.00 
  12  -4   9      5.51    3.92  0. 1.0000     0.      0.00 
  13  -4   9    324.43    8.24  0. 1.0000     0.      0.00 
 -12  -3   9     64.01    7.10  0. 1.0000     0.      0.00 
 -11  -3   9    160.90    7.22  0. 1.0000     0.      0.00 
 -10  -3   9     19.86    8.10  0. 1.0000     0.      0.00 
  -9  -3   9    144.36    6.48  0. 1.0000     0.      0.00 
  -8  -3   9    154.86   16.17  0. 1.0000     0.      0.00 
  -7  -3   9    934.73   21.18  0. 1.0000     0.      0.00 
  -6  -3   9    662.99    8.09  0. 1.0000     0.      0.00 
  -5  -3   9   1132.82   12.99  0. 1.0000     0.      0.00 
  -4  -3   9    494.40    5.05  0. 1.0000     0.      0.00 
  -3  -3   9    907.53    8.61  0. 1.0000     0.      0.00 
  -2  -3   9     19.69    0.95  0. 1.0000     0.      0.00 
  -1  -3   9   1931.58   17.90  0. 1.0000     0.      0.00 
   0  -3   9   1251.77   13.57  0. 1.0000     0.      0.00 
   1  -3   9    112.15    2.61  0. 1.0000     0.      0.00 
   2  -3   9    589.76   12.09  0. 1.0000     0.      0.00 
   3  -3   9     49.57    1.22  0. 1.0000     0.      0.00 
   4  -3   9    105.79    1.82  0. 1.0000     0.      0.00 
   5  -3   9      3.74    0.97  0. 1.0000     0.      0.00 
   6  -3   9    312.40    5.13  0. 1.0000     0.      0.00 
   7  -3   9    234.95    3.68  0. 1.0000     0.      0.00 
   8  -3   9     16.68    2.09  0. 1.0000     0.      0.00 
   9  -3   9     29.03    2.60  0. 1.0000     0.      0.00 
  10  -3   9      1.26    3.34  0. 1.0000     0.      0.00 
  11  -3   9    210.92    9.43  0. 1.0000     0.      0.00 
  12  -3   9     62.58   10.50  0. 1.0000     0.      0.00 
  13  -3   9    186.24   15.13  0. 1.0000     0.      0.00 
 -12  -2   9      0.00   11.20  0. 1.0000     0.      0.00 
 -11  -2   9    131.95   29.91  0. 1.0000     0.      0.00 
 -10  -2   9    194.44   24.26  0. 1.0000     0.      0.00 
  -9  -2   9      6.09    5.05  0. 1.0000     0.      0.00 
  -8  -2   9    134.96    3.90  0. 1.0000     0.      0.00 
  -7  -2   9     60.58    4.00  0. 1.0000     0.      0.00 
  -6  -2   9    565.13    7.32  0. 1.0000     0.      0.00 
  -5  -2   9    107.88    1.94  0. 1.0000     0.      0.00 
  -4  -2   9    442.95    4.63  0. 1.0000     0.      0.00 
  -3  -2   9     93.68    1.68  0. 1.0000     0.      0.00 
  -2  -2   9    109.82    2.63  0. 1.0000     0.      0.00 
  -1  -2   9   2648.84   24.14  0. 1.0000     0.      0.00 
   0  -2   9      8.97    0.75  0. 1.0000     0.      0.00 
   1  -2   9    349.91    4.59  0. 1.0000     0.      0.00 
   2  -2   9   3206.81   36.60  0. 1.0000     0.      0.00 
   3  -2   9     89.13    1.90  0. 1.0000     0.      0.00 
   4  -2   9     84.82    1.51  0. 1.0000     0.      0.00 
   5  -2   9    216.70    3.11  0. 1.0000     0.      0.00 
   6  -2   9    226.06    3.21  0. 1.0000     0.      0.00 
   7  -2   9    918.91   13.22  0. 1.0000     0.      0.00 
   8  -2   9    442.20    6.72  0. 1.0000     0.      0.00 
   9  -2   9    546.56    7.91  0. 1.0000     0.      0.00 
  10  -2   9      1.39    6.29  0. 1.0000     0.      0.00 
  11  -2   9     88.41   28.85  0. 1.0000     0.      0.00 
  12  -2   9     16.65   24.49  0. 1.0000     0.      0.00 
  13  -2   9     12.42   17.91  0. 1.0000     0.      0.00 
 -13  -1   9      0.00   27.85  0. 1.0000     0.      0.00 
 -12  -1   9      6.33   11.56  0. 1.0000     0.      0.00 
 -11  -1   9    424.36   13.57  0. 1.0000     0.      0.00 
 -10  -1   9    208.37    5.79  0. 1.0000     0.      0.00 
  -9  -1   9      3.88    2.81  0. 1.0000     0.      0.00 
  -8  -1   9    881.87    9.51  0. 1.0000     0.      0.00 
  -7  -1   9    257.34    3.84  0. 1.0000     0.      0.00 
  -6  -1   9     86.53    2.40  0. 1.0000     0.      0.00 
  -5  -1   9   1637.18   15.77  0. 1.0000     0.      0.00 
  -4  -1   9    512.83    6.99  0. 1.0000     0.      0.00 
  -3  -1   9    211.67    2.72  0. 1.0000     0.      0.00 
  -2  -1   9   3602.65   35.22  0. 1.0000     0.      0.00 
  -1  -1   9     24.19    1.76  0. 1.0000     0.      0.00 
   0  -1   9      4.29    1.08  0. 1.0000     0.      0.00 
   1  -1   9     46.17    1.14  0. 1.0000     0.      0.00 
   2  -1   9     53.41    4.26  0. 1.0000     0.      0.00 
   3  -1   9    785.46    7.37  0. 1.0000     0.      0.00 
   4  -1   9    156.42    2.10  0. 1.0000     0.      0.00 
   5  -1   9      3.45    1.45  0. 1.0000     0.      0.00 
   6  -1   9    372.68    7.29  0. 1.0000     0.      0.00 
   7  -1   9    248.93    7.25  0. 1.0000     0.      0.00 
   8  -1   9    613.38   27.98  0. 1.0000     0.      0.00 
   9  -1   9     12.39   13.55  0. 1.0000     0.      0.00 
  10  -1   9      2.36    7.77  0. 1.0000     0.      0.00 
  11  -1   9      5.61    8.32  0. 1.0000     0.      0.00 
  12  -1   9      0.00    5.91  0. 1.0000     0.      0.00 
  13  -1   9     18.10    5.73  0. 1.0000     0.      0.00 
 -13   0   9     45.60    8.02  0. 1.0000     0.      0.00 
 -12   0   9      8.49    4.97  0. 1.0000     0.      0.00 
 -11   0   9     67.36    4.90  0. 1.0000     0.      0.00 
 -10   0   9    207.89    4.69  0. 1.0000     0.      0.00 
  -9   0   9    143.88    3.86  0. 1.0000     0.      0.00 
  -8   0   9      9.65    3.00  0. 1.0000     0.      0.00 
  -7   0   9    273.01    5.82  0. 1.0000     0.      0.00 
  -6   0   9     13.32    1.48  0. 1.0000     0.      0.00 
  -5   0   9    670.76    9.45  0. 1.0000     0.      0.00 
  -4   0   9    661.40   11.58  0. 1.0000     0.      0.00 
  -3   0   9    872.43    9.83  0. 1.0000     0.      0.00 
  -2   0   9   3430.50   40.24  0. 1.0000     0.      0.00 
  -1   0   9    187.18    2.41  0. 1.0000     0.      0.00 
   0   0   9      3.84    0.57  0. 1.0000     0.      0.00 
   1   0   9    129.52    2.00  0. 1.0000     0.      0.00 
   2   0   9   4785.85   50.94  0. 1.0000     0.      0.00 
   3   0   9    572.94    7.31  0. 1.0000     0.      0.00 
   4   0   9   2064.11   20.80  0. 1.0000     0.      0.00 
   5   0   9    493.41    6.26  0. 1.0000     0.      0.00 
   6   0   9      3.20    1.51  0. 1.0000     0.      0.00 
   7   0   9     47.35    2.69  0. 1.0000     0.      0.00 
   8   0   9    113.81    4.00  0. 1.0000     0.      0.00 
   9   0   9    133.73    3.94  0. 1.0000     0.      0.00 
  10   0   9     72.20    3.72  0. 1.0000     0.      0.00 
  11   0   9      0.00    3.93  0. 1.0000     0.      0.00 
  12   0   9     97.55    6.32  0. 1.0000     0.      0.00 
  13   0   9     15.96   11.42  0. 1.0000     0.      0.00 
 -13   1   9    149.21    6.56  0. 1.0000     0.      0.00 
 -12   1   9     96.40    6.32  0. 1.0000     0.      0.00 
 -11   1   9    149.02    9.73  0. 1.0000     0.      0.00 
 -10   1   9      2.55    5.94  0. 1.0000     0.      0.00 
  -9   1   9     68.93   26.04  0. 1.0000     0.      0.00 
  -8   1   9   1047.14   28.63  0. 1.0000     0.      0.00 
  -7   1   9   1163.12   14.97  0. 1.0000     0.      0.00 
  -6   1   9    510.54    8.10  0. 1.0000     0.      0.00 
  -5   1   9    134.90    2.02  0. 1.0000     0.      0.00 
  -4   1   9     40.00    1.42  0. 1.0000     0.      0.00 
  -3   1   9    120.98    3.27  0. 1.0000     0.      0.00 
  -2   1   9   1338.21   11.96  0. 1.0000     0.      0.00 
  -1   1   9     53.31    1.17  0. 1.0000     0.      0.00 
   0   1   9     82.07    1.40  0. 1.0000     0.      0.00 
   1   1   9    330.30    3.66  0. 1.0000     0.      0.00 
   2   1   9   1051.32   12.52  0. 1.0000     0.      0.00 
   3   1   9     32.28    1.03  0. 1.0000     0.      0.00 
   4   1   9    283.30    6.95  0. 1.0000     0.      0.00 
   5   1   9    580.80    7.01  0. 1.0000     0.      0.00 
   6   1   9    240.85    4.48  0. 1.0000     0.      0.00 
   7   1   9    107.51    6.84  0. 1.0000     0.      0.00 
   8   1   9     92.68    2.56  0. 1.0000     0.      0.00 
   9   1   9     55.22    3.49  0. 1.0000     0.      0.00 
  10   1   9     30.07    4.71  0. 1.0000     0.      0.00 
  11   1   9    287.08   13.01  0. 1.0000     0.      0.00 
  12   1   9     17.58   14.53  0. 1.0000     0.      0.00 
  13   1   9     12.99   28.80  0. 1.0000     0.      0.00 
 -13   2   9     16.55   11.81  0. 1.0000     0.      0.00 
 -12   2   9     58.71   34.12  0. 1.0000     0.      0.00 
 -11   2   9    227.66   19.57  0. 1.0000     0.      0.00 
 -10   2   9     24.49    6.06  0. 1.0000     0.      0.00 
  -9   2   9     90.35    4.97  0. 1.0000     0.      0.00 
  -8   2   9    318.03    5.88  0. 1.0000     0.      0.00 
  -7   2   9   1070.89   14.21  0. 1.0000     0.      0.00 
  -6   2   9     51.02    1.94  0. 1.0000     0.      0.00 
  -5   2   9    237.23    3.04  0. 1.0000     0.      0.00 
  -4   2   9      6.25    1.01  0. 1.0000     0.      0.00 
  -3   2   9    183.94    2.50  0. 1.0000     0.      0.00 
  -2   2   9   3153.33   36.33  0. 1.0000     0.      0.00 
  -1   2   9    112.49    1.85  0. 1.0000     0.      0.00 
   0   2   9     23.40    1.09  0. 1.0000     0.      0.00 
   1   2   9   3329.65   29.67  0. 1.0000     0.      0.00 
   2   2   9     45.91    5.12  0. 1.0000     0.      0.00 
   3   2   9    608.96    9.84  0. 1.0000     0.      0.00 
   4   2   9    557.62    5.54  0. 1.0000     0.      0.00 
   5   2   9    284.03    3.21  0. 1.0000     0.      0.00 
   6   2   9    146.43    2.71  0. 1.0000     0.      0.00 
   7   2   9    678.65   14.35  0. 1.0000     0.      0.00 
   8   2   9     25.44    3.41  0. 1.0000     0.      0.00 
   9   2   9    174.71    9.59  0. 1.0000     0.      0.00 
  10   2   9     13.90   25.05  0. 1.0000     0.      0.00 
  11   2   9     67.51   31.82  0. 1.0000     0.      0.00 
  12   2   9      8.31   19.63  0. 1.0000     0.      0.00 
 -13   3   9    142.40   14.35  0. 1.0000     0.      0.00 
 -12   3   9    253.15   12.21  0. 1.0000     0.      0.00 
 -11   3   9    306.17    9.45  0. 1.0000     0.      0.00 
 -10   3   9     77.86    3.33  0. 1.0000     0.      0.00 
  -9   3   9    203.24    3.75  0. 1.0000     0.      0.00 
  -8   3   9      9.56    1.99  0. 1.0000     0.      0.00 
  -7   3   9      3.39    2.20  0. 1.0000     0.      0.00 
  -6   3   9    530.52    6.93  0. 1.0000     0.      0.00 
  -5   3   9    125.53    2.15  0. 1.0000     0.      0.00 
  -4   3   9    784.77    8.86  0. 1.0000     0.      0.00 
  -3   3   9    280.06    3.80  0. 1.0000     0.      0.00 
  -2   3   9     28.90    1.40  0. 1.0000     0.      0.00 
  -1   3   9      0.00    7.30  0. 1.0000     0.      0.00 
   0   3   9    614.91    7.99  0. 1.0000     0.      0.00 
   1   3   9     79.16    1.50  0. 1.0000     0.      0.00 
   2   3   9     17.32    0.89  0. 1.0000     0.      0.00 
   3   3   9     53.36    6.52  0. 1.0000     0.      0.00 
   4   3   9     63.89    5.32  0. 1.0000     0.      0.00 
   5   3   9    967.57    9.90  0. 1.0000     0.      0.00 
   6   3   9     26.00    2.67  0. 1.0000     0.      0.00 
   7   3   9   1051.01   45.61  0. 1.0000     0.      0.00 
   9   3   9    179.72   10.04  0. 1.0000     0.      0.00 
  10   3   9      7.83    8.55  0. 1.0000     0.      0.00 
  11   3   9     13.36    6.19  0. 1.0000     0.      0.00 
  12   3   9      4.02    6.22  0. 1.0000     0.      0.00 
 -13   4   9     70.19    6.61  0. 1.0000     0.      0.00 
 -12   4   9     76.11    4.98  0. 1.0000     0.      0.00 
 -11   4   9     94.08    6.03  0. 1.0000     0.      0.00 
 -10   4   9    141.62    4.64  0. 1.0000     0.      0.00 
  -9   4   9     46.24    3.61  0. 1.0000     0.      0.00 
  -8   4   9    264.01    5.96  0. 1.0000     0.      0.00 
  -7   4   9    796.91   26.79  0. 1.0000     0.      0.00 
  -6   4   9     46.45    4.72  0. 1.0000     0.      0.00 
  -5   4   9    304.13    6.20  0. 1.0000     0.      0.00 
  -4   4   9   2401.91   21.37  0. 1.0000     0.      0.00 
  -3   4   9    980.86   11.68  0. 1.0000     0.      0.00 
  -2   4   9     95.11    1.74  0. 1.0000     0.      0.00 
  -1   4   9    271.19    5.82  0. 1.0000     0.      0.00 
   0   4   9      0.00    1.82  0. 1.0000     0.      0.00 
   1   4   9   2648.37   23.94  0. 1.0000     0.      0.00 
   2   4   9    106.57    5.39  0. 1.0000     0.      0.00 
   3   4   9    640.86    9.75  0. 1.0000     0.      0.00 
   4   4   9    178.41    4.95  0. 1.0000     0.      0.00 
   5   4   9    176.34   11.58  0. 1.0000     0.      0.00 
   6   4   9     14.17    3.53  0. 1.0000     0.      0.00 
   7   4   9     33.17    3.83  0. 1.0000     0.      0.00 
   8   4   9     37.37    3.77  0. 1.0000     0.      0.00 
   9   4   9      2.42    5.37  0. 1.0000     0.      0.00 
  10   4   9      0.00    4.74  0. 1.0000     0.      0.00 
  11   4   9      5.45    6.16  0. 1.0000     0.      0.00 
 -13   5   9     12.14    6.80  0. 1.0000     0.      0.00 
 -12   5   9     55.30    8.69  0. 1.0000     0.      0.00 
 -11   5   9    116.36   12.34  0. 1.0000     0.      0.00 
 -10   5   9    106.47   15.50  0. 1.0000     0.      0.00 
  -9   5   9    284.14   25.59  0. 1.0000     0.      0.00 
  -8   5   9    900.56   15.82  0. 1.0000     0.      0.00 
  -7   5   9      5.03    2.35  0. 1.0000     0.      0.00 
  -6   5   9    180.50    4.71  0. 1.0000     0.      0.00 
  -5   5   9     12.78    2.74  0. 1.0000     0.      0.00 
  -4   5   9    528.40    4.95  0. 1.0000     0.      0.00 
  -3   5   9    218.34    3.44  0. 1.0000     0.      0.00 
  -2   5   9     15.30    3.46  0. 1.0000     0.      0.00 
  -1   5   9    201.36    2.73  0. 1.0000     0.      0.00 
   0   5   9     87.26    4.09  0. 1.0000     0.      0.00 
   1   5   9    331.55    4.47  0. 1.0000     0.      0.00 
   2   5   9    180.48    4.24  0. 1.0000     0.      0.00 
   3   5   9      2.03    2.96  0. 1.0000     0.      0.00 
   4   5   9    209.36    3.38  0. 1.0000     0.      0.00 
   5   5   9     22.50    5.30  0. 1.0000     0.      0.00 
   6   5   9    223.88    4.17  0. 1.0000     0.      0.00 
   7   5   9    187.59    3.91  0. 1.0000     0.      0.00 
   8   5   9     54.84    4.50  0. 1.0000     0.      0.00 
   9   5   9      3.51    6.63  0. 1.0000     0.      0.00 
  10   5   9    284.39   14.76  0. 1.0000     0.      0.00 
  11   5   9     20.12   21.79  0. 1.0000     0.      0.00 
 -13   6   9      0.00   51.66  0. 1.0000     0.      0.00 
 -12   6   9     59.28   25.26  0. 1.0000     0.      0.00 
 -11   6   9    116.97   11.46  0. 1.0000     0.      0.00 
 -10   6   9    517.08    9.91  0. 1.0000     0.      0.00 
  -9   6   9    214.20    4.52  0. 1.0000     0.      0.00 
  -8   6   9   1200.70   12.62  0. 1.0000     0.      0.00 
  -7   6   9      1.08    2.71  0. 1.0000     0.      0.00 
  -6   6   9     21.84    2.99  0. 1.0000     0.      0.00 
  -5   6   9     61.05    2.13  0. 1.0000     0.      0.00 
  -4   6   9    978.81   10.53  0. 1.0000     0.      0.00 
  -3   6   9    413.31    6.25  0. 1.0000     0.      0.00 
  -2   6   9    113.39    3.98  0. 1.0000     0.      0.00 
  -1   6   9    300.35   10.50  0. 1.0000     0.      0.00 
   0   6   9    267.44    4.42  0. 1.0000     0.      0.00 
   1   6   9    239.27    5.33  0. 1.0000     0.      0.00 
   2   6   9    138.85    2.78  0. 1.0000     0.      0.00 
   3   6   9    515.53    6.05  0. 1.0000     0.      0.00 
   4   6   9    152.99    2.93  0. 1.0000     0.      0.00 
   5   6   9     14.22    5.32  0. 1.0000     0.      0.00 
   6   6   9     74.86    4.14  0. 1.0000     0.      0.00 
   7   6   9      8.98    4.93  0. 1.0000     0.      0.00 
   8   6   9     81.74   17.89  0. 1.0000     0.      0.00 
   9   6   9     22.74   23.73  0. 1.0000     0.      0.00 
  10   6   9    172.70   37.77  0. 1.0000     0.      0.00 
 -13   7   9    119.89   13.81  0. 1.0000     0.      0.00 
 -12   7   9     69.23    7.88  0. 1.0000     0.      0.00 
 -11   7   9     49.92    6.99  0. 1.0000     0.      0.00 
 -10   7   9      0.00    3.31  0. 1.0000     0.      0.00 
  -9   7   9     57.13    3.04  0. 1.0000     0.      0.00 
  -8   7   9      2.92    2.98  0. 1.0000     0.      0.00 
  -7   7   9     12.80    2.83  0. 1.0000     0.      0.00 
  -6   7   9     20.40    3.87  0. 1.0000     0.      0.00 
  -5   7   9    551.36   26.53  0. 1.0000     0.      0.00 
  -4   7   9    554.28   14.19  0. 1.0000     0.      0.00 
  -3   7   9    219.36    3.94  0. 1.0000     0.      0.00 
  -2   7   9     30.38    2.83  0. 1.0000     0.      0.00 
  -1   7   9   1412.08   15.16  0. 1.0000     0.      0.00 
   0   7   9      2.06    1.87  0. 1.0000     0.      0.00 
   1   7   9    133.98    7.91  0. 1.0000     0.      0.00 
   2   7   9    321.06    8.04  0. 1.0000     0.      0.00 
   3   7   9      1.17    2.49  0. 1.0000     0.      0.00 
   4   7   9    178.66    3.85  0. 1.0000     0.      0.00 
   5   7   9    118.80    9.08  0. 1.0000     0.      0.00 
   6   7   9    242.61   46.69  0. 1.0000     0.      0.00 
   8   7   9     21.12   13.60  0. 1.0000     0.      0.00 
   9   7   9     14.67    9.85  0. 1.0000     0.      0.00 
 -13   8   9     61.80    6.33  0. 1.0000     0.      0.00 
 -12   8   9     11.37    5.41  0. 1.0000     0.      0.00 
 -11   8   9     47.63    7.26  0. 1.0000     0.      0.00 
 -10   8   9      0.00    7.44  0. 1.0000     0.      0.00 
  -9   8   9      0.00   10.63  0. 1.0000     0.      0.00 
  -8   8   9    815.74   71.90  0. 1.0000     0.      0.00 
  -7   8   9    222.38   15.11  0. 1.0000     0.      0.00 
  -6   8   9     51.51    9.57  0. 1.0000     0.      0.00 
  -5   8   9   1554.37   17.15  0. 1.0000     0.      0.00 
  -4   8   9     57.41    2.73  0. 1.0000     0.      0.00 
  -3   8   9    357.55    6.62  0. 1.0000     0.      0.00 
  -2   8   9    168.08    4.35  0. 1.0000     0.      0.00 
  -1   8   9      3.34    2.26  0. 1.0000     0.      0.00 
   0   8   9    219.68    4.38  0. 1.0000     0.      0.00 
   1   8   9     29.91    2.91  0. 1.0000     0.      0.00 
   2   8   9      0.00    7.87  0. 1.0000     0.      0.00 
   5   8   9     77.22   10.98  0. 1.0000     0.      0.00 
   6   8   9     45.23    7.52  0. 1.0000     0.      0.00 
   7   8   9      0.00    7.85  0. 1.0000     0.      0.00 
   8   8   9     18.29    7.19  0. 1.0000     0.      0.00 
   9   8   9     21.32    8.37  0. 1.0000     0.      0.00 
 -12   9   9     85.18   16.91  0. 1.0000     0.      0.00 
 -11   9   9      8.01   28.68  0. 1.0000     0.      0.00 
 -10   9   9    145.63   49.02  0. 1.0000     0.      0.00 
  -9   9   9     36.41   15.90  0. 1.0000     0.      0.00 
  -8   9   9     16.86    5.03  0. 1.0000     0.      0.00 
  -7   9   9    186.05    4.49  0. 1.0000     0.      0.00 
  -6   9   9     46.69    3.27  0. 1.0000     0.      0.00 
  -5   9   9    471.17    5.74  0. 1.0000     0.      0.00 
  -4   9   9      0.00    3.24  0. 1.0000     0.      0.00 
  -3   9   9    117.02    3.42  0. 1.0000     0.      0.00 
  -2   9   9    165.90    6.22  0. 1.0000     0.      0.00 
  -1   9   9    576.04   11.32  0. 1.0000     0.      0.00 
   1   9   9    484.34   27.16  0. 1.0000     0.      0.00 
   2   9   9    134.15    8.64  0. 1.0000     0.      0.00 
   3   9   9      0.00    4.71  0. 1.0000     0.      0.00 
   4   9   9     84.05    5.25  0. 1.0000     0.      0.00 
   5   9   9    101.00    6.30  0. 1.0000     0.      0.00 
   6   9   9    100.68    5.88  0. 1.0000     0.      0.00 
   7   9   9      7.09    6.90  0. 1.0000     0.      0.00 
   8   9   9     29.79   10.31  0. 1.0000     0.      0.00 
 -12  10   9     10.46   16.62  0. 1.0000     0.      0.00 
 -11  10   9    181.87   10.75  0. 1.0000     0.      0.00 
 -10  10   9    210.98    8.51  0. 1.0000     0.      0.00 
  -9  10   9    264.49    7.54  0. 1.0000     0.      0.00 
  -8  10   9      3.27    4.41  0. 1.0000     0.      0.00 
  -7  10   9     16.19    3.53  0. 1.0000     0.      0.00 
  -6  10   9     47.50    4.29  0. 1.0000     0.      0.00 
  -5  10   9    446.14    7.24  0. 1.0000     0.      0.00 
  -4  10   9      0.00    9.08  0. 1.0000     0.      0.00 
  -3  10   9      0.00   36.64  0. 1.0000     0.      0.00 
  -2  10   9    281.03   30.59  0. 1.0000     0.      0.00 
  -1  10   9     14.84    8.90  0. 1.0000     0.      0.00 
   0  10   9    153.87    5.09  0. 1.0000     0.      0.00 
   1  10   9      1.52    3.67  0. 1.0000     0.      0.00 
   2  10   9    251.08    5.61  0. 1.0000     0.      0.00 
   3  10   9     18.92    3.94  0. 1.0000     0.      0.00 
   4  10   9     19.51    5.74  0. 1.0000     0.      0.00 
   5  10   9     18.25    7.40  0. 1.0000     0.      0.00 
   6  10   9     14.80   12.43  0. 1.0000     0.      0.00 
   7  10   9      6.78   22.21  0. 1.0000     0.      0.00 
 -11  11   9     16.32    5.77  0. 1.0000     0.      0.00 
 -10  11   9     81.92    5.84  0. 1.0000     0.      0.00 
  -9  11   9     11.40    7.90  0. 1.0000     0.      0.00 
  -8  11   9      0.00   10.50  0. 1.0000     0.      0.00 
  -7  11   9     71.42   29.78  0. 1.0000     0.      0.00 
  -6  11   9      0.00   37.69  0. 1.0000     0.      0.00 
  -5  11   9    231.82   31.45  0. 1.0000     0.      0.00 
  -4  11   9     32.01   11.35  0. 1.0000     0.      0.00 
  -3  11   9     14.36    5.56  0. 1.0000     0.      0.00 
  -2  11   9    478.13    8.14  0. 1.0000     0.      0.00 
  -1  11   9     13.88    4.30  0. 1.0000     0.      0.00 
   0  11   9    245.64    6.68  0. 1.0000     0.      0.00 
   1  11   9    259.59    6.72  0. 1.0000     0.      0.00 
   2  11   9     10.91    5.66  0. 1.0000     0.      0.00 
   3  11   9      4.23    9.23  0. 1.0000     0.      0.00 
   4  11   9     79.25   19.58  0. 1.0000     0.      0.00 
   5  11   9      0.00   49.12  0. 1.0000     0.      0.00 
 -10  12   9      1.63   24.57  0. 1.0000     0.      0.00 
  -8  12   9      0.00   61.84  0. 1.0000     0.      0.00 
  -7  12   9     31.96   23.66  0. 1.0000     0.      0.00 
  -6  12   9     54.75   11.00  0. 1.0000     0.      0.00 
  -5  12   9     54.75    6.71  0. 1.0000     0.      0.00 
  -4  12   9     59.40    4.86  0. 1.0000     0.      0.00 
  -3  12   9    153.86    4.47  0. 1.0000     0.      0.00 
  -2  12   9      0.00    4.48  0. 1.0000     0.      0.00 
  -1  12   9      8.23    5.29  0. 1.0000     0.      0.00 
   0  12   9      0.00   10.52  0. 1.0000     0.      0.00 
   1  12   9      9.63   18.14  0. 1.0000     0.      0.00 
   4  12   9     89.30   21.07  0. 1.0000     0.      0.00 
  -9  13   9     15.87    5.38  0. 1.0000     0.      0.00 
  -8  13   9     30.64   10.21  0. 1.0000     0.      0.00 
  -7  13   9    173.52    7.14  0. 1.0000     0.      0.00 
  -6  13   9     76.13    4.92  0. 1.0000     0.      0.00 
  -5  13   9     46.61    5.36  0. 1.0000     0.      0.00 
  -4  13   9     55.48    7.61  0. 1.0000     0.      0.00 
  -3  13   9     38.48   13.06  0. 1.0000     0.      0.00 
  -2  13   9     55.31   35.86  0. 1.0000     0.      0.00 
   1  13   9     28.19   16.54  0. 1.0000     0.      0.00 
   2  13   9     15.03   12.92  0. 1.0000     0.      0.00 
  -6  14   9     37.18   18.64  0. 1.0000     0.      0.00 
  -5  14   9      0.00   44.35  0. 1.0000     0.      0.00 
  -4  14   9      4.93   73.89  0. 1.0000     0.      0.00 
  -3  14   9      0.00   31.38  0. 1.0000     0.      0.00 
  -2  14   9      2.83   21.34  0. 1.0000     0.      0.00 
  -1  14   9     10.69   13.81  0. 1.0000     0.      0.00 
  -1 -14  10      4.14   23.57  0. 1.0000     0.      0.00 
   0 -14  10      7.58    7.02  0. 1.0000     0.      0.00 
   1 -14  10     31.32    9.13  0. 1.0000     0.      0.00 
   2 -14  10      8.40   13.25  0. 1.0000     0.      0.00 
   3 -14  10     72.76   32.97  0. 1.0000     0.      0.00 
   5 -14  10    295.97   20.49  0. 1.0000     0.      0.00 
   6 -14  10      0.00   11.22  0. 1.0000     0.      0.00 
   7 -14  10      6.42    7.66  0. 1.0000     0.      0.00 
  -3 -13  10     54.41    8.86  0. 1.0000     0.      0.00 
  -2 -13  10     39.04    8.93  0. 1.0000     0.      0.00 
  -1 -13  10      9.46   12.58  0. 1.0000     0.      0.00 
   0 -13  10    152.63   47.24  0. 1.0000     0.      0.00 
   2 -13  10      0.00   13.83  0. 1.0000     0.      0.00 
   3 -13  10    318.85    9.38  0. 1.0000     0.      0.00 
   4 -13  10     31.57    5.86  0. 1.0000     0.      0.00 
   5 -13  10      5.50    5.06  0. 1.0000     0.      0.00 
   6 -13  10     78.62    5.12  0. 1.0000     0.      0.00 
   7 -13  10      8.21    5.50  0. 1.0000     0.      0.00 
   8 -13  10     32.68    8.04  0. 1.0000     0.      0.00 
   9 -13  10     25.67   13.72  0. 1.0000     0.      0.00 
  -5 -12  10      4.55   27.74  0. 1.0000     0.      0.00 
  -4 -12  10     71.71   12.00  0. 1.0000     0.      0.00 
  -3 -12  10     24.29   29.83  0. 1.0000     0.      0.00 
  -1 -12  10    159.88   13.62  0. 1.0000     0.      0.00 
   0 -12  10    600.49   12.81  0. 1.0000     0.      0.00 
   1 -12  10     23.27    6.93  0. 1.0000     0.      0.00 
   2 -12  10      0.00    5.92  0. 1.0000     0.      0.00 
   3 -12  10      3.80    3.54  0. 1.0000     0.      0.00 
   4 -12  10    115.07    5.32  0. 1.0000     0.      0.00 
   5 -12  10     37.56    5.99  0. 1.0000     0.      0.00 
   6 -12  10    243.15    9.99  0. 1.0000     0.      0.00 
   7 -12  10     36.69   13.54  0. 1.0000     0.      0.00 
   8 -12  10    185.87   23.64  0. 1.0000     0.      0.00 
   9 -12  10      0.00   37.77  0. 1.0000     0.      0.00 
  10 -12  10     48.61   33.02  0. 1.0000     0.      0.00 
  -6 -11  10      1.32   35.61  0. 1.0000     0.      0.00 
  -5 -11  10     12.70   22.22  0. 1.0000     0.      0.00 
  -4 -11  10    515.76   22.97  0. 1.0000     0.      0.00 
  -3 -11  10      0.00    7.19  0. 1.0000     0.      0.00 
  -2 -11  10     50.35    5.86  0. 1.0000     0.      0.00 
  -1 -11  10    100.26    5.42  0. 1.0000     0.      0.00 
   0 -11  10    373.87    6.13  0. 1.0000     0.      0.00 
   1 -11  10    129.63    4.08  0. 1.0000     0.      0.00 
   2 -11  10     10.67    4.12  0. 1.0000     0.      0.00 
   3 -11  10     49.68    5.13  0. 1.0000     0.      0.00 
   4 -11  10    235.50    9.65  0. 1.0000     0.      0.00 
   5 -11  10      0.00   13.36  0. 1.0000     0.      0.00 
   6 -11  10    528.11   35.60  0. 1.0000     0.      0.00 
   7 -11  10     15.51   11.69  0. 1.0000     0.      0.00 
   8 -11  10     16.70    7.30  0. 1.0000     0.      0.00 
   9 -11  10    115.02    6.48  0. 1.0000     0.      0.00 
  10 -11  10     14.86    5.65  0. 1.0000     0.      0.00 
  11 -11  10      6.33    5.37  0. 1.0000     0.      0.00 
  -7 -10  10     64.77   20.25  0. 1.0000     0.      0.00 
  -6 -10  10      0.60    8.40  0. 1.0000     0.      0.00 
  -5 -10  10      0.00    7.09  0. 1.0000     0.      0.00 
  -4 -10  10    923.29   15.89  0. 1.0000     0.      0.00 
  -3 -10  10     32.02    3.52  0. 1.0000     0.      0.00 
  -2 -10  10     10.03    3.23  0. 1.0000     0.      0.00 
  -1 -10  10     66.61    3.95  0. 1.0000     0.      0.00 
   0 -10  10     10.31    3.94  0. 1.0000     0.      0.00 
   1 -10  10     76.08    5.82  0. 1.0000     0.      0.00 
   2 -10  10    451.51   19.53  0. 1.0000     0.      0.00 
   3 -10  10    473.29   20.19  0. 1.0000     0.      0.00 
   4 -10  10    149.31    6.16  0. 1.0000     0.      0.00 
   5 -10  10      4.88    3.85  0. 1.0000     0.      0.00 
   6 -10  10    116.10    4.22  0. 1.0000     0.      0.00 
   7 -10  10    230.58    4.79  0. 1.0000     0.      0.00 
   8 -10  10     32.79    3.76  0. 1.0000     0.      0.00 
   9 -10  10    183.26    5.79  0. 1.0000     0.      0.00 
  10 -10  10    174.89    8.53  0. 1.0000     0.      0.00 
  11 -10  10     51.79    9.55  0. 1.0000     0.      0.00 
  12 -10  10      8.28   15.94  0. 1.0000     0.      0.00 
  -8  -9  10    132.02    9.64  0. 1.0000     0.      0.00 
  -7  -9  10     38.70    6.86  0. 1.0000     0.      0.00 
  -6  -9  10    165.35    8.36  0. 1.0000     0.      0.00 
  -5  -9  10    154.60    6.78  0. 1.0000     0.      0.00 
  -4  -9  10     24.83    4.41  0. 1.0000     0.      0.00 
  -3  -9  10     48.83    4.25  0. 1.0000     0.      0.00 
  -2  -9  10     23.56    4.86  0. 1.0000     0.      0.00 
  -1  -9  10    954.33   32.02  0. 1.0000     0.      0.00 
   0  -9  10     51.69   18.78  0. 1.0000     0.      0.00 
   1  -9  10     59.09    3.95  0. 1.0000     0.      0.00 
   2  -9  10    792.06    9.82  0. 1.0000     0.      0.00 
   3  -9  10   1014.80   11.50  0. 1.0000     0.      0.00 
   4  -9  10    198.03    3.58  0. 1.0000     0.      0.00 
   5  -9  10     13.30    2.20  0. 1.0000     0.      0.00 
   6  -9  10      9.80    2.77  0. 1.0000     0.      0.00 
   7  -9  10    375.21    6.56  0. 1.0000     0.      0.00 
   8  -9  10     37.22    5.85  0. 1.0000     0.      0.00 
   9  -9  10    407.24   28.70  0. 1.0000     0.      0.00 
  10  -9  10      3.50   18.89  0. 1.0000     0.      0.00 
  11  -9  10     19.29   33.04  0. 1.0000     0.      0.00 
  12  -9  10     32.96   24.05  0. 1.0000     0.      0.00 
  -9  -8  10    325.03   10.37  0. 1.0000     0.      0.00 
  -8  -8  10     21.71    6.94  0. 1.0000     0.      0.00 
  -7  -8  10     36.34    6.92  0. 1.0000     0.      0.00 
  -6  -8  10      0.00    6.78  0. 1.0000     0.      0.00 
  -5  -8  10    242.64    7.99  0. 1.0000     0.      0.00 
  -4  -8  10     80.85   28.84  0. 1.0000     0.      0.00 
  -3  -8  10     60.35   20.50  0. 1.0000     0.      0.00 
  -2  -8  10     14.01    3.53  0. 1.0000     0.      0.00 
  -1  -8  10   1943.32   21.29  0. 1.0000     0.      0.00 
   0  -8  10      1.28    2.59  0. 1.0000     0.      0.00 
   1  -8  10     15.09    2.24  0. 1.0000     0.      0.00 
   2  -8  10     11.25    1.65  0. 1.0000     0.      0.00 
   3  -8  10    209.71    3.30  0. 1.0000     0.      0.00 
   4  -8  10    624.80    7.81  0. 1.0000     0.      0.00 
   5  -8  10    258.91    4.95  0. 1.0000     0.      0.00 
   6  -8  10     87.10    5.00  0. 1.0000     0.      0.00 
   7  -8  10    331.35   14.23  0. 1.0000     0.      0.00 
   8  -8  10     36.44   22.03  0. 1.0000     0.      0.00 
   9  -8  10    228.16   11.33  0. 1.0000     0.      0.00 
  10  -8  10    235.18    9.59  0. 1.0000     0.      0.00 
  11  -8  10     77.40    7.17  0. 1.0000     0.      0.00 
  12  -8  10     74.36    6.19  0. 1.0000     0.      0.00 
  13  -8  10    120.92    6.32  0. 1.0000     0.      0.00 
 -10  -7  10     14.11    9.49  0. 1.0000     0.      0.00 
  -9  -7  10    258.41    9.62  0. 1.0000     0.      0.00 
  -8  -7  10     15.85   12.80  0. 1.0000     0.      0.00 
  -7  -7  10     11.54   23.38  0. 1.0000     0.      0.00 
  -6  -7  10    349.06   59.83  0. 1.0000     0.      0.00 
  -5  -7  10    453.79    8.73  0. 1.0000     0.      0.00 
  -4  -7  10     19.96    4.05  0. 1.0000     0.      0.00 
  -3  -7  10    381.03    4.93  0. 1.0000     0.      0.00 
  -2  -7  10     81.02    2.37  0. 1.0000     0.      0.00 
  -1  -7  10    596.61    6.57  0. 1.0000     0.      0.00 
   0  -7  10    240.24    3.82  0. 1.0000     0.      0.00 
   1  -7  10    173.38    4.44  0. 1.0000     0.      0.00 
   2  -7  10   1121.88   11.52  0. 1.0000     0.      0.00 
   3  -7  10    316.46    5.09  0. 1.0000     0.      0.00 
   4  -7  10     34.62    6.24  0. 1.0000     0.      0.00 
   5  -7  10   1286.65   32.92  0. 1.0000     0.      0.00 
   6  -7  10    448.39    7.26  0. 1.0000     0.      0.00 
   7  -7  10    113.32    3.58  0. 1.0000     0.      0.00 
   8  -7  10     30.91    3.47  0. 1.0000     0.      0.00 
   9  -7  10     20.42    3.07  0. 1.0000     0.      0.00 
  10  -7  10    213.42    4.92  0. 1.0000     0.      0.00 
  11  -7  10     10.08    4.84  0. 1.0000     0.      0.00 
  12  -7  10     96.25    8.05  0. 1.0000     0.      0.00 
  13  -7  10     47.17   11.81  0. 1.0000     0.      0.00 
 -10  -6  10     57.49   26.92  0. 1.0000     0.      0.00 
  -9  -6  10      0.00   30.87  0. 1.0000     0.      0.00 
  -8  -6  10     35.49   11.16  0. 1.0000     0.      0.00 
  -7  -6  10     46.25    4.59  0. 1.0000     0.      0.00 
  -6  -6  10    848.96   10.44  0. 1.0000     0.      0.00 
  -5  -6  10    540.31    6.63  0. 1.0000     0.      0.00 
  -4  -6  10     48.28    1.83  0. 1.0000     0.      0.00 
  -3  -6  10     32.64    2.08  0. 1.0000     0.      0.00 
  -2  -6  10    691.32    7.17  0. 1.0000     0.      0.00 
  -1  -6  10     80.46    3.34  0. 1.0000     0.      0.00 
   0  -6  10    422.95    5.24  0. 1.0000     0.      0.00 
   1  -6  10     56.13    3.86  0. 1.0000     0.      0.00 
   2  -6  10   2007.95   40.01  0. 1.0000     0.      0.00 
   3  -6  10    331.11    6.58  0. 1.0000     0.      0.00 
   4  -6  10     13.79    4.17  0. 1.0000     0.      0.00 
   5  -6  10     71.86    2.35  0. 1.0000     0.      0.00 
   6  -6  10    669.25    7.32  0. 1.0000     0.      0.00 
   7  -6  10    712.67    7.80  0. 1.0000     0.      0.00 
   8  -6  10    248.79    7.10  0. 1.0000     0.      0.00 
   9  -6  10     24.73    3.58  0. 1.0000     0.      0.00 
  10  -6  10    259.88    9.47  0. 1.0000     0.      0.00 
  11  -6  10     66.08   13.04  0. 1.0000     0.      0.00 
  12  -6  10    104.43   18.03  0. 1.0000     0.      0.00 
  13  -6  10    146.70   41.13  0. 1.0000     0.      0.00 
 -11  -5  10     25.39   14.72  0. 1.0000     0.      0.00 
 -10  -5  10    289.97   10.20  0. 1.0000     0.      0.00 
  -9  -5  10      4.18    5.49  0. 1.0000     0.      0.00 
  -8  -5  10     34.16    3.62  0. 1.0000     0.      0.00 
  -7  -5  10    208.63    3.98  0. 1.0000     0.      0.00 
  -6  -5  10   1388.40   15.31  0. 1.0000     0.      0.00 
  -5  -5  10     63.35    2.89  0. 1.0000     0.      0.00 
  -4  -5  10     22.19    2.15  0. 1.0000     0.      0.00 
  -3  -5  10    655.93   10.15  0. 1.0000     0.      0.00 
  -2  -5  10   1086.86   12.81  0. 1.0000     0.      0.00 
  -1  -5  10      4.87    2.34  0. 1.0000     0.      0.00 
   0  -5  10   1076.62   10.38  0. 1.0000     0.      0.00 
   1  -5  10      0.86    1.93  0. 1.0000     0.      0.00 
   2  -5  10    940.94    9.36  0. 1.0000     0.      0.00 
   3  -5  10    389.39    4.57  0. 1.0000     0.      0.00 
   4  -5  10     15.74    2.15  0. 1.0000     0.      0.00 
   5  -5  10    702.57    7.02  0. 1.0000     0.      0.00 
   6  -5  10    740.41    8.96  0. 1.0000     0.      0.00 
   7  -5  10     77.46    2.75  0. 1.0000     0.      0.00 
   8  -5  10    463.72   11.76  0. 1.0000     0.      0.00 
   9  -5  10     65.23   11.45  0. 1.0000     0.      0.00 
  10  -5  10     10.17   33.31  0. 1.0000     0.      0.00 
  11  -5  10     21.05   17.03  0. 1.0000     0.      0.00 
  12  -5  10     15.76    9.11  0. 1.0000     0.      0.00 
  13  -5  10    122.87    9.03  0. 1.0000     0.      0.00 
 -11  -4  10      7.97    5.53  0. 1.0000     0.      0.00 
 -10  -4  10    695.67   11.02  0. 1.0000     0.      0.00 
  -9  -4  10     27.70    4.74  0. 1.0000     0.      0.00 
  -8  -4  10     23.39    3.61  0. 1.0000     0.      0.00 
  -7  -4  10     43.09    3.72  0. 1.0000     0.      0.00 
  -6  -4  10    103.45    3.51  0. 1.0000     0.      0.00 
  -5  -4  10    307.96    8.66  0. 1.0000     0.      0.00 
  -4  -4  10     81.41    3.34  0. 1.0000     0.      0.00 
  -3  -4  10   1228.82   13.81  0. 1.0000     0.      0.00 
  -2  -4  10   1563.78   14.68  0. 1.0000     0.      0.00 
  -1  -4  10    128.42    8.38  0. 1.0000     0.      0.00 
   0  -4  10    457.70    4.31  0. 1.0000     0.      0.00 
   1  -4  10   1225.14   11.55  0. 1.0000     0.      0.00 
   2  -4  10     40.19    1.31  0. 1.0000     0.      0.00 
   3  -4  10   1021.17   12.61  0. 1.0000     0.      0.00 
   4  -4  10     35.49    7.37  0. 1.0000     0.      0.00 
   5  -4  10    806.12    9.53  0. 1.0000     0.      0.00 
   6  -4  10    959.11   12.75  0. 1.0000     0.      0.00 
   7  -4  10      1.16    4.24  0. 1.0000     0.      0.00 
   8  -4  10     53.61    4.02  0. 1.0000     0.      0.00 
   9  -4  10    307.32    7.32  0. 1.0000     0.      0.00 
  10  -4  10    376.26    7.27  0. 1.0000     0.      0.00 
  11  -4  10    102.57    5.10  0. 1.0000     0.      0.00 
  12  -4  10    143.30    5.04  0. 1.0000     0.      0.00 
  13  -4  10      4.72    6.40  0. 1.0000     0.      0.00 
 -12  -3  10     36.42    6.05  0. 1.0000     0.      0.00 
 -11  -3  10     20.38    6.53  0. 1.0000     0.      0.00 
 -10  -3  10    238.59   10.40  0. 1.0000     0.      0.00 
  -9  -3  10    139.60    7.30  0. 1.0000     0.      0.00 
  -8  -3  10     38.41   11.17  0. 1.0000     0.      0.00 
  -7  -3  10    783.93   30.74  0. 1.0000     0.      0.00 
  -6  -3  10     14.89    2.72  0. 1.0000     0.      0.00 
  -5  -3  10     83.68    4.61  0. 1.0000     0.      0.00 
  -4  -3  10   1462.03   14.94  0. 1.0000     0.      0.00 
  -3  -3  10   2183.41   19.03  0. 1.0000     0.      0.00 
  -2  -3  10     21.84    0.90  0. 1.0000     0.      0.00 
  -1  -3  10     29.55    1.22  0. 1.0000     0.      0.00 
   0  -3  10    935.58   10.21  0. 1.0000     0.      0.00 
   1  -3  10   2637.97   23.07  0. 1.0000     0.      0.00 
   2  -3  10     96.07    1.88  0. 1.0000     0.      0.00 
   3  -3  10    583.08    7.00  0. 1.0000     0.      0.00 
   4  -3  10    229.49    3.48  0. 1.0000     0.      0.00 
   5  -3  10    699.67   10.89  0. 1.0000     0.      0.00 
   6  -3  10      5.47    2.00  0. 1.0000     0.      0.00 
   7  -3  10     52.88    2.33  0. 1.0000     0.      0.00 
   8  -3  10    131.97    2.99  0. 1.0000     0.      0.00 
   9  -3  10    293.56    5.45  0. 1.0000     0.      0.00 
  10  -3  10     36.00    3.98  0. 1.0000     0.      0.00 
  11  -3  10    191.86    7.48  0. 1.0000     0.      0.00 
  12  -3  10      9.76    9.38  0. 1.0000     0.      0.00 
  13  -3  10     42.46   13.11  0. 1.0000     0.      0.00 
 -12  -2  10     18.54   11.84  0. 1.0000     0.      0.00 
 -11  -2  10    189.69   42.85  0. 1.0000     0.      0.00 
 -10  -2  10     13.66   27.71  0. 1.0000     0.      0.00 
  -9  -2  10     31.21    6.34  0. 1.0000     0.      0.00 
  -8  -2  10      3.36    3.39  0. 1.0000     0.      0.00 
  -7  -2  10   1997.23   22.91  0. 1.0000     0.      0.00 
  -6  -2  10     11.13    2.04  0. 1.0000     0.      0.00 
  -5  -2  10     30.43    2.00  0. 1.0000     0.      0.00 
  -4  -2  10     31.11    2.35  0. 1.0000     0.      0.00 
  -3  -2  10   1614.87   15.97  0. 1.0000     0.      0.00 
  -2  -2  10   1727.40   16.08  0. 1.0000     0.      0.00 
  -1  -2  10    186.68    9.22  0. 1.0000     0.      0.00 
   0  -2  10   1100.08   12.55  0. 1.0000     0.      0.00 
   1  -2  10   2731.03   41.88  0. 1.0000     0.      0.00 
   2  -2  10    908.33    9.82  0. 1.0000     0.      0.00 
   3  -2  10   1059.62   14.57  0. 1.0000     0.      0.00 
   4  -2  10    684.16    7.26  0. 1.0000     0.      0.00 
   5  -2  10     15.25    1.86  0. 1.0000     0.      0.00 
   6  -2  10   1098.41   11.81  0. 1.0000     0.      0.00 
   7  -2  10    207.68    3.43  0. 1.0000     0.      0.00 
   8  -2  10     86.81    3.94  0. 1.0000     0.      0.00 
   9  -2  10    609.85    9.85  0. 1.0000     0.      0.00 
  10  -2  10      3.42    6.84  0. 1.0000     0.      0.00 
  11  -2  10     28.32   26.73  0. 1.0000     0.      0.00 
  12  -2  10    158.14   22.91  0. 1.0000     0.      0.00 
  13  -2  10      6.19   19.20  0. 1.0000     0.      0.00 
 -13  -1  10      4.62   33.15  0. 1.0000     0.      0.00 
 -12  -1  10     40.19   11.73  0. 1.0000     0.      0.00 
 -11  -1  10    100.66    8.57  0. 1.0000     0.      0.00 
 -10  -1  10    123.50    5.30  0. 1.0000     0.      0.00 
  -9  -1  10    112.15    3.42  0. 1.0000     0.      0.00 
  -8  -1  10      4.18    2.18  0. 1.0000     0.      0.00 
  -7  -1  10   1435.84   15.04  0. 1.0000     0.      0.00 
  -6  -1  10    386.51    5.41  0. 1.0000     0.      0.00 
  -5  -1  10    350.99    5.64  0. 1.0000     0.      0.00 
  -4  -1  10   1627.37   15.77  0. 1.0000     0.      0.00 
  -3  -1  10    547.22    6.38  0. 1.0000     0.      0.00 
  -2  -1  10     91.15    2.99  0. 1.0000     0.      0.00 
  -1  -1  10   1761.31   17.83  0. 1.0000     0.      0.00 
   0  -1  10   1647.83   19.95  0. 1.0000     0.      0.00 
   1  -1  10    130.20    4.77  0. 1.0000     0.      0.00 
   2  -1  10     18.04    1.00  0. 1.0000     0.      0.00 
   3  -1  10      8.72    1.13  0. 1.0000     0.      0.00 
   4  -1  10   2972.70   33.70  0. 1.0000     0.      0.00 
   5  -1  10      9.76    1.45  0. 1.0000     0.      0.00 
   6  -1  10    281.11    5.46  0. 1.0000     0.      0.00 
   7  -1  10    103.35    2.97  0. 1.0000     0.      0.00 
   8  -1  10    108.22   11.35  0. 1.0000     0.      0.00 
   9  -1  10     88.40   14.47  0. 1.0000     0.      0.00 
  10  -1  10     41.96    9.53  0. 1.0000     0.      0.00 
  11  -1  10    133.15   13.55  0. 1.0000     0.      0.00 
  12  -1  10    104.61    6.50  0. 1.0000     0.      0.00 
  13  -1  10     19.77    5.93  0. 1.0000     0.      0.00 
 -13   0  10     11.90    8.45  0. 1.0000     0.      0.00 
 -12   0  10    109.43    5.75  0. 1.0000     0.      0.00 
 -11   0  10    212.30    5.86  0. 1.0000     0.      0.00 
 -10   0  10     63.13    3.73  0. 1.0000     0.      0.00 
  -9   0  10     84.99    3.82  0. 1.0000     0.      0.00 
  -8   0  10    274.05    5.22  0. 1.0000     0.      0.00 
  -7   0  10      3.53    2.78  0. 1.0000     0.      0.00 
  -6   0  10    254.01    4.69  0. 1.0000     0.      0.00 
  -5   0  10     52.61    2.48  0. 1.0000     0.      0.00 
  -4   0  10   2484.69   28.79  0. 1.0000     0.      0.00 
  -3   0  10    594.63    6.66  0. 1.0000     0.      0.00 
  -2   0  10     16.99    1.20  0. 1.0000     0.      0.00 
  -1   0  10    487.13    8.23  0. 1.0000     0.      0.00 
   0   0  10   2316.11   25.00  0. 1.0000     0.      0.00 
   1   0  10   1513.53   14.66  0. 1.0000     0.      0.00 
   2   0  10    151.56    1.96  0. 1.0000     0.      0.00 
   3   0  10    349.21    4.95  0. 1.0000     0.      0.00 
   4   0  10   1957.63   23.87  0. 1.0000     0.      0.00 
   5   0  10    966.50   10.71  0. 1.0000     0.      0.00 
   6   0  10     54.03    2.92  0. 1.0000     0.      0.00 
   7   0  10    196.26    9.76  0. 1.0000     0.      0.00 
   8   0  10     70.02    3.31  0. 1.0000     0.      0.00 
   9   0  10    250.12    4.91  0. 1.0000     0.      0.00 
  10   0  10    163.61    4.50  0. 1.0000     0.      0.00 
  11   0  10      0.00    5.57  0. 1.0000     0.      0.00 
  12   0  10     31.19    6.12  0. 1.0000     0.      0.00 
  13   0  10     11.44   11.30  0. 1.0000     0.      0.00 
 -13   1  10     70.94    6.47  0. 1.0000     0.      0.00 
 -12   1  10    264.08    7.59  0. 1.0000     0.      0.00 
 -11   1  10      5.71    6.43  0. 1.0000     0.      0.00 
 -10   1  10     77.59    6.92  0. 1.0000     0.      0.00 
  -9   1  10    180.02   18.42  0. 1.0000     0.      0.00 
  -8   1  10    394.11   12.46  0. 1.0000     0.      0.00 
  -7   1  10     84.93    3.45  0. 1.0000     0.      0.00 
  -6   1  10    588.41    7.06  0. 1.0000     0.      0.00 
  -5   1  10    139.01    2.28  0. 1.0000     0.      0.00 
  -4   1  10   2707.87   33.05  0. 1.0000     0.      0.00 
  -3   1  10    194.92    2.18  0. 1.0000     0.      0.00 
  -2   1  10    112.13    1.57  0. 1.0000     0.      0.00 
  -1   1  10   1254.28   11.60  0. 1.0000     0.      0.00 
   0   1  10   2184.53   23.89  0. 1.0000     0.      0.00 
   1   1  10    428.81    8.50  0. 1.0000     0.      0.00 
   2   1  10    682.91    8.01  0. 1.0000     0.      0.00 
   3   1  10    130.68    3.30  0. 1.0000     0.      0.00 
   4   1  10    690.54    7.35  0. 1.0000     0.      0.00 
   5   1  10    112.95    2.31  0. 1.0000     0.      0.00 
   6   1  10     85.24    3.57  0. 1.0000     0.      0.00 
   7   1  10   1097.68   18.17  0. 1.0000     0.      0.00 
   8   1  10      0.09    2.85  0. 1.0000     0.      0.00 
   9   1  10     93.22    4.03  0. 1.0000     0.      0.00 
  10   1  10    157.29    6.17  0. 1.0000     0.      0.00 
  11   1  10     15.69    9.19  0. 1.0000     0.      0.00 
  12   1  10     48.17   15.05  0. 1.0000     0.      0.00 
 -13   2  10     13.64   13.66  0. 1.0000     0.      0.00 
 -12   2  10     67.33   37.93  0. 1.0000     0.      0.00 
 -11   2  10    226.41   16.00  0. 1.0000     0.      0.00 
 -10   2  10     19.12    5.86  0. 1.0000     0.      0.00 
  -9   2  10    454.10    8.67  0. 1.0000     0.      0.00 
  -8   2  10    529.44    7.09  0. 1.0000     0.      0.00 
  -7   2  10      7.92    2.20  0. 1.0000     0.      0.00 
  -6   2  10    449.87    7.46  0. 1.0000     0.      0.00 
  -5   2  10    373.35    3.71  0. 1.0000     0.      0.00 
  -4   2  10    204.71    4.29  0. 1.0000     0.      0.00 
  -3   2  10   1558.26   17.17  0. 1.0000     0.      0.00 
  -2   2  10    352.35    6.03  0. 1.0000     0.      0.00 
  -1   2  10   2251.75   32.59  0. 1.0000     0.      0.00 
   0   2  10   2823.59   46.32  0. 1.0000     0.      0.00 
   1   2  10    227.78    3.12  0. 1.0000     0.      0.00 
   2   2  10    489.30    6.86  0. 1.0000     0.      0.00 
   3   2  10   1347.89   16.37  0. 1.0000     0.      0.00 
   4   2  10    537.39    6.45  0. 1.0000     0.      0.00 
   5   2  10    394.65    5.03  0. 1.0000     0.      0.00 
   6   2  10     22.68    3.47  0. 1.0000     0.      0.00 
   7   2  10    507.65    6.64  0. 1.0000     0.      0.00 
   8   2  10    143.97    4.57  0. 1.0000     0.      0.00 
   9   2  10     12.22    7.73  0. 1.0000     0.      0.00 
  10   2  10     61.84   30.32  0. 1.0000     0.      0.00 
  12   2  10     51.94   20.14  0. 1.0000     0.      0.00 
 -13   3  10     39.07   12.03  0. 1.0000     0.      0.00 
 -12   3  10     15.15    8.36  0. 1.0000     0.      0.00 
 -11   3  10    110.51    7.54  0. 1.0000     0.      0.00 
 -10   3  10    209.47    4.60  0. 1.0000     0.      0.00 
  -9   3  10    351.68    5.71  0. 1.0000     0.      0.00 
  -8   3  10     61.72    2.54  0. 1.0000     0.      0.00 
  -7   3  10     54.72    2.34  0. 1.0000     0.      0.00 
  -6   3  10    212.84    3.08  0. 1.0000     0.      0.00 
  -5   3  10   1564.17   16.79  0. 1.0000     0.      0.00 
  -4   3  10     18.39    1.00  0. 1.0000     0.      0.00 
  -3   3  10    445.17    5.67  0. 1.0000     0.      0.00 
  -2   3  10    106.70    3.25  0. 1.0000     0.      0.00 
  -1   3  10   1204.33   12.07  0. 1.0000     0.      0.00 
   0   3  10    106.69    2.16  0. 1.0000     0.      0.00 
   1   3  10     23.69    1.16  0. 1.0000     0.      0.00 
   2   3  10    494.14   14.01  0. 1.0000     0.      0.00 
   3   3  10   1486.90   14.83  0. 1.0000     0.      0.00 
   4   3  10    456.49    6.31  0. 1.0000     0.      0.00 
   5   3  10    132.52    2.73  0. 1.0000     0.      0.00 
   6   3  10     16.39    2.75  0. 1.0000     0.      0.00 
   7   3  10    297.76   18.37  0. 1.0000     0.      0.00 
   9   3  10      9.83   13.95  0. 1.0000     0.      0.00 
  10   3  10    373.96   10.58  0. 1.0000     0.      0.00 
  11   3  10     11.93    6.49  0. 1.0000     0.      0.00 
  12   3  10     17.95    6.45  0. 1.0000     0.      0.00 
 -13   4  10    178.48    7.50  0. 1.0000     0.      0.00 
 -12   4  10      3.27    5.08  0. 1.0000     0.      0.00 
 -11   4  10     19.09    4.64  0. 1.0000     0.      0.00 
 -10   4  10    170.42    5.72  0. 1.0000     0.      0.00 
  -9   4  10    604.89    9.43  0. 1.0000     0.      0.00 
  -8   4  10    310.29    6.54  0. 1.0000     0.      0.00 
  -7   4  10     74.19    9.54  0. 1.0000     0.      0.00 
  -6   4  10    700.95   17.33  0. 1.0000     0.      0.00 
  -5   4  10   1083.16   14.98  0. 1.0000     0.      0.00 
  -4   4  10    292.15    3.95  0. 1.0000     0.      0.00 
  -3   4  10    767.23    7.49  0. 1.0000     0.      0.00 
  -2   4  10     12.63   11.24  0. 1.0000     0.      0.00 
  -1   4  10    331.17    5.78  0. 1.0000     0.      0.00 
   0   4  10   1228.00   11.48  0. 1.0000     0.      0.00 
   1   4  10     10.49    1.37  0. 1.0000     0.      0.00 
   2   4  10    615.98    7.49  0. 1.0000     0.      0.00 
   3   4  10   1423.12   20.75  0. 1.0000     0.      0.00 
   4   4  10    231.67    6.58  0. 1.0000     0.      0.00 
   5   4  10      0.47    9.41  0. 1.0000     0.      0.00 
   6   4  10    247.17    5.43  0. 1.0000     0.      0.00 
   7   4  10      7.59    3.43  0. 1.0000     0.      0.00 
   8   4  10     96.57    4.31  0. 1.0000     0.      0.00 
   9   4  10     13.65    4.33  0. 1.0000     0.      0.00 
  10   4  10     87.64    5.38  0. 1.0000     0.      0.00 
  11   4  10     21.59    6.83  0. 1.0000     0.      0.00 
 -13   5  10    272.69    8.67  0. 1.0000     0.      0.00 
 -12   5  10     73.46    8.09  0. 1.0000     0.      0.00 
 -11   5  10     18.32   11.26  0. 1.0000     0.      0.00 
 -10   5  10    135.79   18.38  0. 1.0000     0.      0.00 
  -9   5  10     65.79    9.17  0. 1.0000     0.      0.00 
  -8   5  10    292.12    7.31  0. 1.0000     0.      0.00 
  -7   5  10    486.52    6.74  0. 1.0000     0.      0.00 
  -6   5  10    373.39    6.36  0. 1.0000     0.      0.00 
  -5   5  10    326.07    4.99  0. 1.0000     0.      0.00 
  -4   5  10      7.88    0.97  0. 1.0000     0.      0.00 
  -3   5  10     10.31    1.38  0. 1.0000     0.      0.00 
  -2   5  10   1627.50   17.11  0. 1.0000     0.      0.00 
  -1   5  10      0.00   15.00  0. 1.0000     0.      0.00 
   0   5  10    596.34    6.10  0. 1.0000     0.      0.00 
   1   5  10      8.68    1.69  0. 1.0000     0.      0.00 
   2   5  10    295.05    5.74  0. 1.0000     0.      0.00 
   3   5  10    703.60    7.74  0. 1.0000     0.      0.00 
   4   5  10     14.53    3.66  0. 1.0000     0.      0.00 
   5   5  10    101.46    2.89  0. 1.0000     0.      0.00 
   6   5  10    817.93   11.74  0. 1.0000     0.      0.00 
   7   5  10    103.23    3.33  0. 1.0000     0.      0.00 
   8   5  10    103.30    5.48  0. 1.0000     0.      0.00 
   9   5  10     70.97    7.35  0. 1.0000     0.      0.00 
  10   5  10     18.27   12.28  0. 1.0000     0.      0.00 
  11   5  10     61.70   24.39  0. 1.0000     0.      0.00 
 -13   6  10      5.40   27.61  0. 1.0000     0.      0.00 
 -12   6  10    282.59   23.36  0. 1.0000     0.      0.00 
 -11   6  10      2.00   12.54  0. 1.0000     0.      0.00 
 -10   6  10    357.16    8.19  0. 1.0000     0.      0.00 
  -9   6  10      1.15    4.02  0. 1.0000     0.      0.00 
  -8   6  10     45.76    2.73  0. 1.0000     0.      0.00 
  -7   6  10    546.51    5.57  0. 1.0000     0.      0.00 
  -6   6  10    669.49    7.95  0. 1.0000     0.      0.00 
  -5   6  10    501.93   11.76  0. 1.0000     0.      0.00 
  -4   6  10    181.70    3.01  0. 1.0000     0.      0.00 
  -3   6  10    493.62    6.00  0. 1.0000     0.      0.00 
  -2   6  10   1787.14   30.01  0. 1.0000     0.      0.00 
  -1   6  10    641.19   12.52  0. 1.0000     0.      0.00 
   0   6  10     39.99    2.66  0. 1.0000     0.      0.00 
   1   6  10     29.83    2.32  0. 1.0000     0.      0.00 
   2   6  10    266.03    4.70  0. 1.0000     0.      0.00 
   3   6  10    165.04    2.97  0. 1.0000     0.      0.00 
   4   6  10    156.82    3.52  0. 1.0000     0.      0.00 
   5   6  10    154.64    3.67  0. 1.0000     0.      0.00 
   6   6  10    234.38    5.33  0. 1.0000     0.      0.00 
   7   6  10     13.34    6.41  0. 1.0000     0.      0.00 
   8   6  10     10.86   15.23  0. 1.0000     0.      0.00 
   9   6  10      0.00   21.85  0. 1.0000     0.      0.00 
  10   6  10      0.00   54.01  0. 1.0000     0.      0.00 
 -13   7  10     70.06   13.41  0. 1.0000     0.      0.00 
 -12   7  10     83.88    8.13  0. 1.0000     0.      0.00 
 -11   7  10      5.50    6.60  0. 1.0000     0.      0.00 
 -10   7  10    252.99    5.58  0. 1.0000     0.      0.00 
  -9   7  10     39.33    3.53  0. 1.0000     0.      0.00 
  -8   7  10      5.32    3.28  0. 1.0000     0.      0.00 
  -7   7  10     47.89    3.26  0. 1.0000     0.      0.00 
  -6   7  10    616.42   11.05  0. 1.0000     0.      0.00 
  -5   7  10    460.72   31.86  0. 1.0000     0.      0.00 
  -4   7  10    158.54   14.29  0. 1.0000     0.      0.00 
  -3   7  10     51.38    2.69  0. 1.0000     0.      0.00 
  -2   7  10    439.44    6.41  0. 1.0000     0.      0.00 
  -1   7  10    221.85    3.85  0. 1.0000     0.      0.00 
   0   7  10     47.20    3.17  0. 1.0000     0.      0.00 
   1   7  10    837.20   11.27  0. 1.0000     0.      0.00 
   2   7  10      0.00    4.33  0. 1.0000     0.      0.00 
   3   7  10    381.32    5.20  0. 1.0000     0.      0.00 
   4   7  10     34.21    3.63  0. 1.0000     0.      0.00 
   5   7  10      0.00    9.61  0. 1.0000     0.      0.00 
   6   7  10    157.77   39.91  0. 1.0000     0.      0.00 
   8   7  10     55.22   13.74  0. 1.0000     0.      0.00 
   9   7  10    279.80   11.50  0. 1.0000     0.      0.00 
 -13   8  10     39.81    6.32  0. 1.0000     0.      0.00 
 -12   8  10     49.88    5.70  0. 1.0000     0.      0.00 
 -11   8  10     10.88    7.67  0. 1.0000     0.      0.00 
 -10   8  10    186.84   13.87  0. 1.0000     0.      0.00 
  -9   8  10    391.55   17.14  0. 1.0000     0.      0.00 
  -8   8  10      0.00   36.14  0. 1.0000     0.      0.00 
  -7   8  10    589.19   51.44  0. 1.0000     0.      0.00 
  -6   8  10    229.02    6.85  0. 1.0000     0.      0.00 
  -5   8  10      7.28    3.29  0. 1.0000     0.      0.00 
  -4   8  10    391.52    5.50  0. 1.0000     0.      0.00 
  -3   8  10    256.68    4.91  0. 1.0000     0.      0.00 
  -2   8  10     54.31    2.14  0. 1.0000     0.      0.00 
  -1   8  10    321.77    4.76  0. 1.0000     0.      0.00 
   0   8  10      9.36    2.55  0. 1.0000     0.      0.00 
   1   8  10    683.37   10.92  0. 1.0000     0.      0.00 
   2   8  10    167.17    7.07  0. 1.0000     0.      0.00 
   4   8  10      0.00   30.30  0. 1.0000     0.      0.00 
   5   8  10     75.04   16.48  0. 1.0000     0.      0.00 
   6   8  10      7.44    7.53  0. 1.0000     0.      0.00 
   7   8  10     33.85    7.69  0. 1.0000     0.      0.00 
   8   8  10     40.06    7.70  0. 1.0000     0.      0.00 
 -12   9  10      7.52   16.34  0. 1.0000     0.      0.00 
 -10   9  10     10.44   28.59  0. 1.0000     0.      0.00 
  -9   9  10    451.32   40.95  0. 1.0000     0.      0.00 
  -8   9  10      6.37    5.68  0. 1.0000     0.      0.00 
  -7   9  10    196.48    4.73  0. 1.0000     0.      0.00 
  -6   9  10     23.22    3.20  0. 1.0000     0.      0.00 
  -5   9  10     33.45    2.29  0. 1.0000     0.      0.00 
  -4   9  10      9.80    2.89  0. 1.0000     0.      0.00 
  -3   9  10    672.66   14.21  0. 1.0000     0.      0.00 
  -2   9  10    441.04    6.22  0. 1.0000     0.      0.00 
  -1   9  10    125.05    7.45  0. 1.0000     0.      0.00 
   0   9  10      0.00   33.89  0. 1.0000     0.      0.00 
   1   9  10    306.22   39.70  0. 1.0000     0.      0.00 
   2   9  10    312.83   10.90  0. 1.0000     0.      0.00 
   3   9  10     10.35    4.43  0. 1.0000     0.      0.00 
   4   9  10    400.04    9.00  0. 1.0000     0.      0.00 
   5   9  10    126.55    6.66  0. 1.0000     0.      0.00 
   6   9  10     63.60    6.26  0. 1.0000     0.      0.00 
   7   9  10     33.63    7.32  0. 1.0000     0.      0.00 
   8   9  10     33.84   15.89  0. 1.0000     0.      0.00 
 -11  10  10     25.37   10.89  0. 1.0000     0.      0.00 
 -10  10  10     15.64    8.12  0. 1.0000     0.      0.00 
  -9  10  10    153.48    6.08  0. 1.0000     0.      0.00 
  -8  10  10     61.33    3.91  0. 1.0000     0.      0.00 
  -7  10  10     56.74    5.08  0. 1.0000     0.      0.00 
  -6  10  10    327.16    6.30  0. 1.0000     0.      0.00 
  -5  10  10     10.36    4.30  0. 1.0000     0.      0.00 
  -4  10  10    227.80   13.11  0. 1.0000     0.      0.00 
  -3  10  10    438.05   36.82  0. 1.0000     0.      0.00 
  -2  10  10      4.71   24.44  0. 1.0000     0.      0.00 
  -1  10  10      0.00    8.49  0. 1.0000     0.      0.00 
   0  10  10     12.00    5.16  0. 1.0000     0.      0.00 
   1  10  10     26.26    3.81  0. 1.0000     0.      0.00 
   2  10  10     36.71    5.11  0. 1.0000     0.      0.00 
   3  10  10      9.18    3.96  0. 1.0000     0.      0.00 
   4  10  10    285.48    7.94  0. 1.0000     0.      0.00 
   5  10  10     12.62    7.51  0. 1.0000     0.      0.00 
   6  10  10     12.81   13.46  0. 1.0000     0.      0.00 
 -11  11  10     18.45    5.71  0. 1.0000     0.      0.00 
 -10  11  10     12.40    6.11  0. 1.0000     0.      0.00 
  -9  11  10     46.49    7.83  0. 1.0000     0.      0.00 
  -8  11  10     57.14   12.32  0. 1.0000     0.      0.00 
  -7  11  10      0.00   35.37  0. 1.0000     0.      0.00 
  -6  11  10    533.50   70.08  0. 1.0000     0.      0.00 
  -5  11  10     28.36   34.08  0. 1.0000     0.      0.00 
  -4  11  10     44.64   13.83  0. 1.0000     0.      0.00 
  -3  11  10    196.74    9.79  0. 1.0000     0.      0.00 
  -2  11  10     15.95    5.07  0. 1.0000     0.      0.00 
  -1  11  10      0.00    4.94  0. 1.0000     0.      0.00 
   0  11  10    317.73    6.97  0. 1.0000     0.      0.00 
   1  11  10     69.18    5.36  0. 1.0000     0.      0.00 
   2  11  10    148.02    6.11  0. 1.0000     0.      0.00 
   3  11  10      1.57    9.06  0. 1.0000     0.      0.00 
   4  11  10      0.90   18.95  0. 1.0000     0.      0.00 
 -10  12  10     59.08   37.83  0. 1.0000     0.      0.00 
  -8  12  10    187.97   33.92  0. 1.0000     0.      0.00 
  -7  12  10      5.09   24.08  0. 1.0000     0.      0.00 
  -6  12  10     22.39   10.34  0. 1.0000     0.      0.00 
  -5  12  10     10.21    6.50  0. 1.0000     0.      0.00 
  -4  12  10     10.85    5.01  0. 1.0000     0.      0.00 
  -3  12  10     17.53    3.70  0. 1.0000     0.      0.00 
  -2  12  10     90.70    5.23  0. 1.0000     0.      0.00 
  -1  12  10     46.06    5.42  0. 1.0000     0.      0.00 
   0  12  10    166.87   11.53  0. 1.0000     0.      0.00 
   1  12  10      2.85   20.51  0. 1.0000     0.      0.00 
   4  12  10     11.11   21.35  0. 1.0000     0.      0.00 
  -8  13  10      8.70   10.64  0. 1.0000     0.      0.00 
  -7  13  10     10.83    6.25  0. 1.0000     0.      0.00 
  -6  13  10     56.91    4.80  0. 1.0000     0.      0.00 
  -5  13  10     22.78    5.38  0. 1.0000     0.      0.00 
  -4  13  10     12.31    7.47  0. 1.0000     0.      0.00 
  -3  13  10    332.26   20.30  0. 1.0000     0.      0.00 
  -2  13  10     16.37   28.67  0. 1.0000     0.      0.00 
   1  13  10     12.20   19.37  0. 1.0000     0.      0.00 
   2  13  10     13.76   14.00  0. 1.0000     0.      0.00 
  -6  14  10     10.71   16.90  0. 1.0000     0.      0.00 
  -5  14  10     77.59   46.11  0. 1.0000     0.      0.00 
  -4  14  10      0.00   74.13  0. 1.0000     0.      0.00 
  -3  14  10      0.00   39.92  0. 1.0000     0.      0.00 
  -2  14  10      3.63   20.67  0. 1.0000     0.      0.00 
  -1  14  10     21.45   11.49  0. 1.0000     0.      0.00 
   0 -14  11    109.59    7.01  0. 1.0000     0.      0.00 
   1 -14  11     14.07    9.04  0. 1.0000     0.      0.00 
   2 -14  11      0.00   12.81  0. 1.0000     0.      0.00 
   3 -14  11     32.22   26.94  0. 1.0000     0.      0.00 
   5 -14  11      0.00   17.93  0. 1.0000     0.      0.00 
   6 -14  11     20.16   10.87  0. 1.0000     0.      0.00 
   7 -14  11      8.15    7.63  0. 1.0000     0.      0.00 
  -3 -13  11     19.66   17.44  0. 1.0000     0.      0.00 
  -2 -13  11      0.00    8.89  0. 1.0000     0.      0.00 
  -1 -13  11     30.84   11.89  0. 1.0000     0.      0.00 
   0 -13  11    719.15   60.85  0. 1.0000     0.      0.00 
   2 -13  11     11.72   13.10  0. 1.0000     0.      0.00 
   3 -13  11     11.83    7.37  0. 1.0000     0.      0.00 
   4 -13  11    216.43    7.02  0. 1.0000     0.      0.00 
   5 -13  11    305.02    7.09  0. 1.0000     0.      0.00 
   6 -13  11      3.77    4.68  0. 1.0000     0.      0.00 
   7 -13  11      7.74    5.77  0. 1.0000     0.      0.00 
   8 -13  11     68.49    8.79  0. 1.0000     0.      0.00 
   9 -13  11     21.75   15.03  0. 1.0000     0.      0.00 
  -4 -12  11    132.59   12.91  0. 1.0000     0.      0.00 
  -3 -12  11     29.42   26.59  0. 1.0000     0.      0.00 
  -2 -12  11     54.61   68.73  0. 1.0000     0.      0.00 
  -1 -12  11     40.60   11.88  0. 1.0000     0.      0.00 
   0 -12  11    232.12    8.52  0. 1.0000     0.      0.00 
   1 -12  11    434.33    9.10  0. 1.0000     0.      0.00 
   2 -12  11      5.55    4.82  0. 1.0000     0.      0.00 
   3 -12  11     17.50    3.96  0. 1.0000     0.      0.00 
   4 -12  11      6.90    4.25  0. 1.0000     0.      0.00 
   5 -12  11     10.31    5.63  0. 1.0000     0.      0.00 
   6 -12  11      6.02    9.05  0. 1.0000     0.      0.00 
   7 -12  11    798.31   23.45  0. 1.0000     0.      0.00 
   8 -12  11      0.00   20.12  0. 1.0000     0.      0.00 
   9 -12  11      0.00   67.94  0. 1.0000     0.      0.00 
  10 -12  11      6.08   18.72  0. 1.0000     0.      0.00 
  -6 -11  11      8.77   30.47  0. 1.0000     0.      0.00 
  -5 -11  11     80.03   56.60  0. 1.0000     0.      0.00 
  -4 -11  11     28.33   18.17  0. 1.0000     0.      0.00 
  -3 -11  11     82.88    7.26  0. 1.0000     0.      0.00 
  -2 -11  11     27.99    5.28  0. 1.0000     0.      0.00 
  -1 -11  11    220.82    5.88  0. 1.0000     0.      0.00 
   0 -11  11     70.63    3.63  0. 1.0000     0.      0.00 
   1 -11  11    133.18    4.19  0. 1.0000     0.      0.00 
   2 -11  11     27.72    4.23  0. 1.0000     0.      0.00 
   3 -11  11    467.63    9.19  0. 1.0000     0.      0.00 
   4 -11  11      0.00    7.51  0. 1.0000     0.      0.00 
   5 -11  11      0.00   13.19  0. 1.0000     0.      0.00 
   6 -11  11      0.00   53.64  0. 1.0000     0.      0.00 
   7 -11  11   1289.82   30.67  0. 1.0000     0.      0.00 
   8 -11  11    201.23    8.31  0. 1.0000     0.      0.00 
   9 -11  11     12.25    6.66  0. 1.0000     0.      0.00 
  10 -11  11      1.08    5.55  0. 1.0000     0.      0.00 
  11 -11  11     78.03    5.66  0. 1.0000     0.      0.00 
  -7 -10  11      0.00   24.64  0. 1.0000     0.      0.00 
  -6 -10  11     36.95    8.94  0. 1.0000     0.      0.00 
  -5 -10  11    170.92    8.19  0. 1.0000     0.      0.00 
  -4 -10  11    236.37    7.39  0. 1.0000     0.      0.00 
  -3 -10  11    150.97    4.71  0. 1.0000     0.      0.00 
  -2 -10  11     15.97    3.24  0. 1.0000     0.      0.00 
  -1 -10  11    222.84    5.25  0. 1.0000     0.      0.00 
   0 -10  11     40.93    4.19  0. 1.0000     0.      0.00 
   1 -10  11     19.10    5.99  0. 1.0000     0.      0.00 
   2 -10  11    323.28   18.16  0. 1.0000     0.      0.00 
   3 -10  11   1438.78   50.15  0. 1.0000     0.      0.00 
   4 -10  11    103.77    5.74  0. 1.0000     0.      0.00 
   5 -10  11      0.17    4.59  0. 1.0000     0.      0.00 
   6 -10  11     91.22    4.26  0. 1.0000     0.      0.00 
   7 -10  11     31.30    4.28  0. 1.0000     0.      0.00 
   8 -10  11    338.20    6.85  0. 1.0000     0.      0.00 
   9 -10  11      0.00    5.05  0. 1.0000     0.      0.00 
  10 -10  11    102.25    7.33  0. 1.0000     0.      0.00 
  11 -10  11      0.00    9.88  0. 1.0000     0.      0.00 
  12 -10  11      7.88   17.79  0. 1.0000     0.      0.00 
  -8  -9  11    112.78    9.89  0. 1.0000     0.      0.00 
  -7  -9  11     36.65    7.69  0. 1.0000     0.      0.00 
  -6  -9  11     21.53    5.20  0. 1.0000     0.      0.00 
  -5  -9  11     90.67    6.27  0. 1.0000     0.      0.00 
  -4  -9  11    504.31    9.54  0. 1.0000     0.      0.00 
  -3  -9  11     37.05    4.08  0. 1.0000     0.      0.00 
  -2  -9  11    340.39    8.66  0. 1.0000     0.      0.00 
  -1  -9  11    445.89   23.47  0. 1.0000     0.      0.00 
   1  -9  11      0.00    4.38  0. 1.0000     0.      0.00 
   2  -9  11    938.66   11.59  0. 1.0000     0.      0.00 
   3  -9  11      2.63    2.98  0. 1.0000     0.      0.00 
   4  -9  11    362.64    4.98  0. 1.0000     0.      0.00 
   5  -9  11      0.00    2.96  0. 1.0000     0.      0.00 
   6  -9  11    127.26    3.43  0. 1.0000     0.      0.00 
   7  -9  11      0.00    3.78  0. 1.0000     0.      0.00 
   8  -9  11     85.97    5.69  0. 1.0000     0.      0.00 
   9  -9  11     33.78   24.11  0. 1.0000     0.      0.00 
  10  -9  11    948.03   31.22  0. 1.0000     0.      0.00 
  11  -9  11     60.24   27.57  0. 1.0000     0.      0.00 
  12  -9  11     15.20   25.58  0. 1.0000     0.      0.00 
  -9  -8  11     16.20    7.75  0. 1.0000     0.      0.00 
  -8  -8  11    461.49   11.17  0. 1.0000     0.      0.00 
  -7  -8  11     18.05    6.88  0. 1.0000     0.      0.00 
  -6  -8  11    226.57    8.48  0. 1.0000     0.      0.00 
  -5  -8  11     22.27    6.54  0. 1.0000     0.      0.00 
  -4  -8  11      8.95   27.47  0. 1.0000     0.      0.00 
  -3  -8  11      1.24   31.00  0. 1.0000     0.      0.00 
  -2  -8  11   1256.55   15.58  0. 1.0000     0.      0.00 
  -1  -8  11     11.60    3.19  0. 1.0000     0.      0.00 
   0  -8  11    220.24    4.41  0. 1.0000     0.      0.00 
   1  -8  11     22.90    2.12  0. 1.0000     0.      0.00 
   2  -8  11    583.50    6.75  0. 1.0000     0.      0.00 
   3  -8  11    574.37    7.45  0. 1.0000     0.      0.00 
   4  -8  11     50.74    2.98  0. 1.0000     0.      0.00 
   5  -8  11      0.00    6.25  0. 1.0000     0.      0.00 
   6  -8  11   1599.11   24.21  0. 1.0000     0.      0.00 
   7  -8  11      0.00   10.01  0. 1.0000     0.      0.00 
   8  -8  11      0.00   31.13  0. 1.0000     0.      0.00 
   9  -8  11    191.07   11.43  0. 1.0000     0.      0.00 
  10  -8  11    466.00   13.36  0. 1.0000     0.      0.00 
  11  -8  11    183.63    8.18  0. 1.0000     0.      0.00 
  12  -8  11      6.78    6.28  0. 1.0000     0.      0.00 
  13  -8  11     12.00    6.42  0. 1.0000     0.      0.00 
 -10  -7  11     31.56   16.01  0. 1.0000     0.      0.00 
  -9  -7  11     24.63    8.91  0. 1.0000     0.      0.00 
  -8  -7  11     23.36   12.50  0. 1.0000     0.      0.00 
  -7  -7  11     77.80   24.39  0. 1.0000     0.      0.00 
  -6  -7  11    304.56   28.75  0. 1.0000     0.      0.00 
  -5  -7  11     27.05    4.89  0. 1.0000     0.      0.00 
  -4  -7  11      3.91    3.40  0. 1.0000     0.      0.00 
  -3  -7  11     45.06    2.55  0. 1.0000     0.      0.00 
  -2  -7  11   1257.27   14.47  0. 1.0000     0.      0.00 
  -1  -7  11   2132.11   22.01  0. 1.0000     0.      0.00 
   0  -7  11     22.92    2.04  0. 1.0000     0.      0.00 
   1  -7  11      0.00    5.20  0. 1.0000     0.      0.00 
   2  -7  11    306.28    4.52  0. 1.0000     0.      0.00 
   3  -7  11     71.47    3.54  0. 1.0000     0.      0.00 
   4  -7  11     31.07    8.18  0. 1.0000     0.      0.00 
   5  -7  11   1520.49   45.77  0. 1.0000     0.      0.00 
   6  -7  11    751.72   12.75  0. 1.0000     0.      0.00 
   7  -7  11     93.61    3.50  0. 1.0000     0.      0.00 
   8  -7  11     69.73    3.61  0. 1.0000     0.      0.00 
   9  -7  11    292.57    5.03  0. 1.0000     0.      0.00 
  10  -7  11      0.00    4.03  0. 1.0000     0.      0.00 
  11  -7  11    220.67    6.34  0. 1.0000     0.      0.00 
  12  -7  11     77.86    8.41  0. 1.0000     0.      0.00 
  13  -7  11    164.93   13.02  0. 1.0000     0.      0.00 
 -10  -6  11     63.91   36.76  0. 1.0000     0.      0.00 
  -9  -6  11      3.37   29.75  0. 1.0000     0.      0.00 
  -8  -6  11     17.76    8.84  0. 1.0000     0.      0.00 
  -7  -6  11      6.68    4.73  0. 1.0000     0.      0.00 
  -6  -6  11    293.75    5.30  0. 1.0000     0.      0.00 
  -5  -6  11   1292.04   13.69  0. 1.0000     0.      0.00 
  -4  -6  11     61.79    2.28  0. 1.0000     0.      0.00 
  -3  -6  11     35.03    2.78  0. 1.0000     0.      0.00 
  -2  -6  11      9.10    2.09  0. 1.0000     0.      0.00 
  -1  -6  11    642.36    7.62  0. 1.0000     0.      0.00 
   0  -6  11    143.77    3.69  0. 1.0000     0.      0.00 
   1  -6  11   2053.71   33.29  0. 1.0000     0.      0.00 
   2  -6  11    535.73   22.42  0. 1.0000     0.      0.00 
   3  -6  11      6.54    2.98  0. 1.0000     0.      0.00 
   4  -6  11      2.16    0.86  0. 1.0000     0.      0.00 
   5  -6  11   2267.56   25.41  0. 1.0000     0.      0.00 
   6  -6  11    437.87    6.99  0. 1.0000     0.      0.00 
   7  -6  11     67.18    3.44  0. 1.0000     0.      0.00 
   8  -6  11     11.69    2.56  0. 1.0000     0.      0.00 
   9  -6  11    456.54    6.98  0. 1.0000     0.      0.00 
  10  -6  11      0.00    7.10  0. 1.0000     0.      0.00 
  11  -6  11     42.70    9.93  0. 1.0000     0.      0.00 
  12  -6  11      0.00   19.44  0. 1.0000     0.      0.00 
  13  -6  11    295.71   37.15  0. 1.0000     0.      0.00 
 -11  -5  11     34.47   18.26  0. 1.0000     0.      0.00 
 -10  -5  11      5.05    9.05  0. 1.0000     0.      0.00 
  -9  -5  11    169.87    6.76  0. 1.0000     0.      0.00 
  -8  -5  11     76.53    4.20  0. 1.0000     0.      0.00 
  -7  -5  11     15.68    2.86  0. 1.0000     0.      0.00 
  -6  -5  11     57.27    3.21  0. 1.0000     0.      0.00 
  -5  -5  11   1378.37   14.34  0. 1.0000     0.      0.00 
  -4  -5  11     99.44    2.96  0. 1.0000     0.      0.00 
  -3  -5  11    645.14    6.85  0. 1.0000     0.      0.00 
  -2  -5  11      4.49    2.62  0. 1.0000     0.      0.00 
  -1  -5  11     60.98    2.72  0. 1.0000     0.      0.00 
   0  -5  11     12.50    2.53  0. 1.0000     0.      0.00 
   1  -5  11   5468.16   51.28  0. 1.0000     0.      0.00 
   2  -5  11    789.25   12.02  0. 1.0000     0.      0.00 
   3  -5  11     20.47    1.54  0. 1.0000     0.      0.00 
   4  -5  11      4.17    1.25  0. 1.0000     0.      0.00 
   5  -5  11    540.61    6.68  0. 1.0000     0.      0.00 
   6  -5  11    627.64    8.38  0. 1.0000     0.      0.00 
   7  -5  11    226.12    5.26  0. 1.0000     0.      0.00 
   8  -5  11     52.76    4.99  0. 1.0000     0.      0.00 
   9  -5  11    821.99   26.73  0. 1.0000     0.      0.00 
  10  -5  11     23.55   24.66  0. 1.0000     0.      0.00 
  11  -5  11     24.04   13.94  0. 1.0000     0.      0.00 
  12  -5  11    307.46   11.89  0. 1.0000     0.      0.00 
  13  -5  11     51.74    9.35  0. 1.0000     0.      0.00 
 -11  -4  11     13.48    5.70  0. 1.0000     0.      0.00 
 -10  -4  11    152.10    5.54  0. 1.0000     0.      0.00 
  -9  -4  11    469.96    8.80  0. 1.0000     0.      0.00 
  -8  -4  11      2.27    3.72  0. 1.0000     0.      0.00 
  -7  -4  11    310.46    5.41  0. 1.0000     0.      0.00 
  -6  -4  11    344.75    5.48  0. 1.0000     0.      0.00 
  -5  -4  11     16.69    4.65  0. 1.0000     0.      0.00 
  -4  -4  11    188.81    5.77  0. 1.0000     0.      0.00 
  -3  -4  11   2327.83   28.18  0. 1.0000     0.      0.00 
  -2  -4  11    569.34    7.33  0. 1.0000     0.      0.00 
  -1  -4  11      7.32    1.39  0. 1.0000     0.      0.00 
   0  -4  11     27.46    3.73  0. 1.0000     0.      0.00 
   1  -4  11    959.29    9.55  0. 1.0000     0.      0.00 
   2  -4  11   3950.16   36.70  0. 1.0000     0.      0.00 
   3  -4  11     18.80    2.96  0. 1.0000     0.      0.00 
   4  -4  11    259.75    3.96  0. 1.0000     0.      0.00 
   5  -4  11    709.78   12.52  0. 1.0000     0.      0.00 
   6  -4  11     25.33    4.23  0. 1.0000     0.      0.00 
   7  -4  11    142.15    6.34  0. 1.0000     0.      0.00 
   8  -4  11   2169.84   35.30  0. 1.0000     0.      0.00 
   9  -4  11      0.00    3.85  0. 1.0000     0.      0.00 
  10  -4  11      8.53    3.99  0. 1.0000     0.      0.00 
  11  -4  11      9.84    4.58  0. 1.0000     0.      0.00 
  12  -4  11    350.55    8.26  0. 1.0000     0.      0.00 
  13  -4  11      8.45    6.64  0. 1.0000     0.      0.00 
 -12  -3  11     64.10    6.58  0. 1.0000     0.      0.00 
 -11  -3  11     53.28    6.45  0. 1.0000     0.      0.00 
 -10  -3  11    673.24   13.78  0. 1.0000     0.      0.00 
  -9  -3  11      0.00    7.39  0. 1.0000     0.      0.00 
  -8  -3  11    227.59   15.84  0. 1.0000     0.      0.00 
  -7  -3  11    178.12   10.70  0. 1.0000     0.      0.00 
  -6  -3  11     92.40    3.54  0. 1.0000     0.      0.00 
  -5  -3  11     42.37    2.38  0. 1.0000     0.      0.00 
  -4  -3  11    362.00    5.75  0. 1.0000     0.      0.00 
  -3  -3  11    466.05    8.17  0. 1.0000     0.      0.00 
  -2  -3  11   3836.07   32.95  0. 1.0000     0.      0.00 
  -1  -3  11     18.02    1.10  0. 1.0000     0.      0.00 
   0  -3  11    268.84    3.28  0. 1.0000     0.      0.00 
   1  -3  11    145.48    4.74  0. 1.0000     0.      0.00 
   2  -3  11    597.73    6.34  0. 1.0000     0.      0.00 
   3  -3  11     74.48    2.47  0. 1.0000     0.      0.00 
   4  -3  11   4758.90   64.59  0. 1.0000     0.      0.00 
   5  -3  11      0.00    1.72  0. 1.0000     0.      0.00 
   6  -3  11    111.38    2.57  0. 1.0000     0.      0.00 
   7  -3  11    121.82    3.03  0. 1.0000     0.      0.00 
   8  -3  11   1683.12   25.67  0. 1.0000     0.      0.00 
   9  -3  11    388.73    6.34  0. 1.0000     0.      0.00 
  10  -3  11     52.24    3.77  0. 1.0000     0.      0.00 
  11  -3  11     32.03    6.61  0. 1.0000     0.      0.00 
  12  -3  11    178.84   11.88  0. 1.0000     0.      0.00 
  13  -3  11     29.14   13.18  0. 1.0000     0.      0.00 
 -12  -2  11     37.58   12.97  0. 1.0000     0.      0.00 
 -11  -2  11      0.00   26.91  0. 1.0000     0.      0.00 
 -10  -2  11      8.94   31.03  0. 1.0000     0.      0.00 
  -9  -2  11     35.03    6.05  0. 1.0000     0.      0.00 
  -8  -2  11    211.69    4.86  0. 1.0000     0.      0.00 
  -7  -2  11     30.48    3.69  0. 1.0000     0.      0.00 
  -6  -2  11    759.63    8.01  0. 1.0000     0.      0.00 
  -5  -2  11    350.53    5.14  0. 1.0000     0.      0.00 
  -4  -2  11    427.81    5.59  0. 1.0000     0.      0.00 
  -3  -2  11   1635.62   18.48  0. 1.0000     0.      0.00 
  -2  -2  11    863.37    9.49  0. 1.0000     0.      0.00 
  -1  -2  11    127.00    2.53  0. 1.0000     0.      0.00 
   0  -2  11   2235.14   39.46  0. 1.0000     0.      0.00 
   1  -2  11     29.53    2.43  0. 1.0000     0.      0.00 
   2  -2  11     10.99    1.36  0. 1.0000     0.      0.00 
   3  -2  11    171.46    2.54  0. 1.0000     0.      0.00 
   4  -2  11   3855.92   50.73  0. 1.0000     0.      0.00 
   5  -2  11   1894.15   20.27  0. 1.0000     0.      0.00 
   6  -2  11    210.72    3.65  0. 1.0000     0.      0.00 
   7  -2  11     14.72    2.02  0. 1.0000     0.      0.00 
   8  -2  11    545.04    8.39  0. 1.0000     0.      0.00 
   9  -2  11    115.21    5.01  0. 1.0000     0.      0.00 
  10  -2  11    127.22    8.16  0. 1.0000     0.      0.00 
  11  -2  11    356.42   50.49  0. 1.0000     0.      0.00 
  12  -2  11     24.06   21.77  0. 1.0000     0.      0.00 
  13  -2  11     20.62   18.59  0. 1.0000     0.      0.00 
 -13  -1  11      0.97   48.65  0. 1.0000     0.      0.00 
 -12  -1  11    119.63   12.86  0. 1.0000     0.      0.00 
 -11  -1  11     29.51    7.19  0. 1.0000     0.      0.00 
 -10  -1  11      8.06    5.61  0. 1.0000     0.      0.00 
  -9  -1  11    197.60    4.32  0. 1.0000     0.      0.00 
  -8  -1  11    396.92    5.48  0. 1.0000     0.      0.00 
  -7  -1  11   1710.99   20.24  0. 1.0000     0.      0.00 
  -6  -1  11    575.26    6.91  0. 1.0000     0.      0.00 
  -5  -1  11     17.59    1.41  0. 1.0000     0.      0.00 
  -4  -1  11    313.40    5.50  0. 1.0000     0.      0.00 
  -3  -1  11    912.47   10.86  0. 1.0000     0.      0.00 
  -2  -1  11     16.51    1.76  0. 1.0000     0.      0.00 
  -1  -1  11    797.69    8.79  0. 1.0000     0.      0.00 
   0  -1  11   4293.08   46.69  0. 1.0000     0.      0.00 
   1  -1  11   1355.19   14.66  0. 1.0000     0.      0.00 
   2  -1  11    163.28    2.16  0. 1.0000     0.      0.00 
   3  -1  11    526.23    6.19  0. 1.0000     0.      0.00 
   4  -1  11     59.88    2.92  0. 1.0000     0.      0.00 
   5  -1  11   1572.49   20.93  0. 1.0000     0.      0.00 
   6  -1  11    236.66    3.42  0. 1.0000     0.      0.00 
   7  -1  11    543.87    6.94  0. 1.0000     0.      0.00 
   8  -1  11    133.77   12.94  0. 1.0000     0.      0.00 
   9  -1  11      0.00   12.71  0. 1.0000     0.      0.00 
  10  -1  11     35.78   12.02  0. 1.0000     0.      0.00 
  11  -1  11   1110.61   23.84  0. 1.0000     0.      0.00 
  12  -1  11     21.70    6.46  0. 1.0000     0.      0.00 
  13  -1  11      4.20    5.88  0. 1.0000     0.      0.00 
 -13   0  11     15.68    8.54  0. 1.0000     0.      0.00 
 -12   0  11     29.33    5.50  0. 1.0000     0.      0.00 
 -11   0  11    733.39   11.61  0. 1.0000     0.      0.00 
 -10   0  11     83.95    4.18  0. 1.0000     0.      0.00 
  -9   0  11     50.60    4.01  0. 1.0000     0.      0.00 
  -8   0  11     81.20    3.67  0. 1.0000     0.      0.00 
  -7   0  11   2147.04   25.35  0. 1.0000     0.      0.00 
  -6   0  11     80.12    4.46  0. 1.0000     0.      0.00 
  -5   0  11    744.62   13.65  0. 1.0000     0.      0.00 
  -4   0  11    276.98    3.60  0. 1.0000     0.      0.00 
  -3   0  11    224.42    4.81  0. 1.0000     0.      0.00 
  -2   0  11    126.18    1.83  0. 1.0000     0.      0.00 
  -1   0  11   2752.67   31.19  0. 1.0000     0.      0.00 
   0   0  11    278.20    3.40  0. 1.0000     0.      0.00 
   1   0  11   2575.78   28.72  0. 1.0000     0.      0.00 
   2   0  11     27.57    1.33  0. 1.0000     0.      0.00 
   3   0  11    810.63    8.05  0. 1.0000     0.      0.00 
   4   0  11     14.84    1.74  0. 1.0000     0.      0.00 
   5   0  11    344.04    6.25  0. 1.0000     0.      0.00 
   6   0  11     72.49    5.18  0. 1.0000     0.      0.00 
   7   0  11   2348.22   25.62  0. 1.0000     0.      0.00 
   8   0  11    408.94    6.87  0. 1.0000     0.      0.00 
   9   0  11     91.16    3.75  0. 1.0000     0.      0.00 
  10   0  11     78.41    4.32  0. 1.0000     0.      0.00 
  11   0  11    554.18    8.94  0. 1.0000     0.      0.00 
  12   0  11     22.16    6.13  0. 1.0000     0.      0.00 
  13   0  11     32.94   12.28  0. 1.0000     0.      0.00 
 -13   1  11     35.96    6.24  0. 1.0000     0.      0.00 
 -12   1  11      0.00    5.72  0. 1.0000     0.      0.00 
 -11   1  11   1156.78   20.20  0. 1.0000     0.      0.00 
 -10   1  11     10.70    6.67  0. 1.0000     0.      0.00 
  -9   1  11    137.42   11.93  0. 1.0000     0.      0.00 
  -8   1  11     15.12    4.11  0. 1.0000     0.      0.00 
  -7   1  11     32.22    4.22  0. 1.0000     0.      0.00 
  -6   1  11      2.46    2.25  0. 1.0000     0.      0.00 
  -5   1  11   2011.39   23.27  0. 1.0000     0.      0.00 
  -4   1  11    644.96    6.63  0. 1.0000     0.      0.00 
  -3   1  11    542.52    6.39  0. 1.0000     0.      0.00 
  -2   1  11    123.95    2.07  0. 1.0000     0.      0.00 
  -1   1  11    884.83   11.56  0. 1.0000     0.      0.00 
   0   1  11   3824.32   45.46  0. 1.0000     0.      0.00 
   1   1  11    353.35    5.64  0. 1.0000     0.      0.00 
   2   1  11      5.26    1.75  0. 1.0000     0.      0.00 
   3   1  11   2420.64   30.01  0. 1.0000     0.      0.00 
   4   1  11     55.80    1.75  0. 1.0000     0.      0.00 
   5   1  11     86.03    3.13  0. 1.0000     0.      0.00 
   6   1  11   1233.83   15.48  0. 1.0000     0.      0.00 
   7   1  11    567.39    9.63  0. 1.0000     0.      0.00 
   8   1  11    541.79    7.71  0. 1.0000     0.      0.00 
   9   1  11      1.07    3.45  0. 1.0000     0.      0.00 
  10   1  11     19.45    6.76  0. 1.0000     0.      0.00 
  11   1  11     84.64    9.51  0. 1.0000     0.      0.00 
  12   1  11     32.62   14.74  0. 1.0000     0.      0.00 
 -13   2  11     44.63   12.72  0. 1.0000     0.      0.00 
 -12   2  11     58.83   27.05  0. 1.0000     0.      0.00 
 -11   2  11     28.77   18.57  0. 1.0000     0.      0.00 
 -10   2  11     51.58    6.53  0. 1.0000     0.      0.00 
  -9   2  11    354.81    6.38  0. 1.0000     0.      0.00 
  -8   2  11    436.10    7.99  0. 1.0000     0.      0.00 
  -7   2  11     11.69    1.96  0. 1.0000     0.      0.00 
  -6   2  11    340.47    4.35  0. 1.0000     0.      0.00 
  -5   2  11   1063.52   14.69  0. 1.0000     0.      0.00 
  -4   2  11   5474.89   61.95  0. 1.0000     0.      0.00 
  -3   2  11     69.86    1.95  0. 1.0000     0.      0.00 
  -2   2  11     74.12    1.64  0. 1.0000     0.      0.00 
  -1   2  11    226.79    4.79  0. 1.0000     0.      0.00 
   0   2  11    426.53    8.56  0. 1.0000     0.      0.00 
   1   2  11    215.42    3.62  0. 1.0000     0.      0.00 
   2   2  11   1737.47   16.52  0. 1.0000     0.      0.00 
   3   2  11    378.86    9.57  0. 1.0000     0.      0.00 
   4   2  11    643.92    7.28  0. 1.0000     0.      0.00 
   5   2  11    106.07    2.04  0. 1.0000     0.      0.00 
   6   2  11    617.69    7.01  0. 1.0000     0.      0.00 
   7   2  11     23.01    3.39  0. 1.0000     0.      0.00 
   8   2  11    112.56    4.23  0. 1.0000     0.      0.00 
   9   2  11    122.53    8.97  0. 1.0000     0.      0.00 
  10   2  11    279.30   27.35  0. 1.0000     0.      0.00 
  11   2  11      0.00   44.48  0. 1.0000     0.      0.00 
  12   2  11     18.25   22.51  0. 1.0000     0.      0.00 
 -13   3  11     31.98   13.66  0. 1.0000     0.      0.00 
 -12   3  11    117.98    8.55  0. 1.0000     0.      0.00 
 -11   3  11     12.98    5.68  0. 1.0000     0.      0.00 
 -10   3  11      6.65    3.46  0. 1.0000     0.      0.00 
  -9   3  11    230.87    4.84  0. 1.0000     0.      0.00 
  -8   3  11   2545.43   28.75  0. 1.0000     0.      0.00 
  -7   3  11     67.55    2.76  0. 1.0000     0.      0.00 
  -6   3  11      8.53    1.90  0. 1.0000     0.      0.00 
  -5   3  11     36.61    1.44  0. 1.0000     0.      0.00 
  -4   3  11   1950.02   35.42  0. 1.0000     0.      0.00 
  -3   3  11      4.15    2.90  0. 1.0000     0.      0.00 
  -2   3  11   1968.96   18.72  0. 1.0000     0.      0.00 
  -1   3  11    148.67    2.27  0. 1.0000     0.      0.00 
   0   3  11     50.18    1.45  0. 1.0000     0.      0.00 
   1   3  11      7.60    1.61  0. 1.0000     0.      0.00 
   2   3  11   2736.62   24.21  0. 1.0000     0.      0.00 
   3   3  11   1258.26   22.11  0. 1.0000     0.      0.00 
   4   3  11    287.15    3.67  0. 1.0000     0.      0.00 
   5   3  11    124.91    3.89  0. 1.0000     0.      0.00 
   6   3  11    519.86    7.59  0. 1.0000     0.      0.00 
   7   3  11     14.45   13.73  0. 1.0000     0.      0.00 
   8   3  11     40.42   30.09  0. 1.0000     0.      0.00 
   9   3  11    153.26   28.61  0. 1.0000     0.      0.00 
  10   3  11    439.21   11.14  0. 1.0000     0.      0.00 
  11   3  11    102.92    7.03  0. 1.0000     0.      0.00 
  12   3  11     24.67    9.03  0. 1.0000     0.      0.00 
 -13   4  11      5.60    7.11  0. 1.0000     0.      0.00 
 -12   4  11    280.81    7.66  0. 1.0000     0.      0.00 
 -11   4  11     32.39    4.85  0. 1.0000     0.      0.00 
 -10   4  11     14.50    4.04  0. 1.0000     0.      0.00 
  -9   4  11    206.53    5.09  0. 1.0000     0.      0.00 
  -8   4  11   1619.86   33.44  0. 1.0000     0.      0.00 
  -7   4  11     70.50   21.30  0. 1.0000     0.      0.00 
  -6   4  11    308.36   13.70  0. 1.0000     0.      0.00 
  -5   4  11    240.69    3.40  0. 1.0000     0.      0.00 
  -4   4  11     10.45    1.16  0. 1.0000     0.      0.00 
  -3   4  11     92.39    1.89  0. 1.0000     0.      0.00 
  -2   4  11   3465.09   34.37  0. 1.0000     0.      0.00 
  -1   4  11   2759.76   30.75  0. 1.0000     0.      0.00 
   0   4  11      9.20    1.31  0. 1.0000     0.      0.00 
   1   4  11     20.65    1.45  0. 1.0000     0.      0.00 
   2   4  11    524.74    6.54  0. 1.0000     0.      0.00 
   3   4  11   1001.44   11.50  0. 1.0000     0.      0.00 
   4   4  11    302.46   11.37  0. 1.0000     0.      0.00 
   5   4  11     82.36   19.59  0. 1.0000     0.      0.00 
   6   4  11    324.60    6.46  0. 1.0000     0.      0.00 
   7   4  11    207.12    4.68  0. 1.0000     0.      0.00 
   8   4  11     18.50    4.24  0. 1.0000     0.      0.00 
   9   4  11    577.58    9.58  0. 1.0000     0.      0.00 
  10   4  11     66.86    5.21  0. 1.0000     0.      0.00 
  11   4  11      2.97    7.04  0. 1.0000     0.      0.00 
 -13   5  11    246.03    8.69  0. 1.0000     0.      0.00 
 -12   5  11    294.56   10.86  0. 1.0000     0.      0.00 
 -11   5  11      3.27   11.43  0. 1.0000     0.      0.00 
 -10   5  11     47.70   15.13  0. 1.0000     0.      0.00 
  -9   5  11    488.13   25.90  0. 1.0000     0.      0.00 
  -8   5  11     21.18    6.40  0. 1.0000     0.      0.00 
  -7   5  11     49.59    3.30  0. 1.0000     0.      0.00 
  -6   5  11    887.81    9.86  0. 1.0000     0.      0.00 
  -5   5  11    939.87    9.65  0. 1.0000     0.      0.00 
  -4   5  11      8.32    1.02  0. 1.0000     0.      0.00 
  -3   5  11     10.06    1.49  0. 1.0000     0.      0.00 
  -2   5  11     77.92   10.20  0. 1.0000     0.      0.00 
  -1   5  11   4492.94   45.62  0. 1.0000     0.      0.00 
   0   5  11     43.06    2.15  0. 1.0000     0.      0.00 
   1   5  11     38.82    4.15  0. 1.0000     0.      0.00 
   2   5  11    167.57    8.38  0. 1.0000     0.      0.00 
   3   5  11     52.78    2.57  0. 1.0000     0.      0.00 
   4   5  11     11.36    2.35  0. 1.0000     0.      0.00 
   5   5  11   1618.89   18.11  0. 1.0000     0.      0.00 
   6   5  11    104.30    3.21  0. 1.0000     0.      0.00 
   7   5  11     39.03    2.87  0. 1.0000     0.      0.00 
   8   5  11      3.94    4.94  0. 1.0000     0.      0.00 
   9   5  11    178.93    8.02  0. 1.0000     0.      0.00 
  10   5  11      0.00   13.89  0. 1.0000     0.      0.00 
  11   5  11     41.62   39.91  0. 1.0000     0.      0.00 
 -13   6  11    413.35   28.12  0. 1.0000     0.      0.00 
 -12   6  11     11.21   14.97  0. 1.0000     0.      0.00 
 -11   6  11     79.93   12.99  0. 1.0000     0.      0.00 
 -10   6  11     20.33    6.83  0. 1.0000     0.      0.00 
  -9   6  11    173.64    4.63  0. 1.0000     0.      0.00 
  -8   6  11      9.92    2.57  0. 1.0000     0.      0.00 
  -7   6  11     67.03    2.02  0. 1.0000     0.      0.00 
  -6   6  11     84.88    6.72  0. 1.0000     0.      0.00 
  -5   6  11   2520.69   25.42  0. 1.0000     0.      0.00 
  -4   6  11      0.00    2.49  0. 1.0000     0.      0.00 
  -3   6  11     96.13    2.67  0. 1.0000     0.      0.00 
  -2   6  11    210.47    6.93  0. 1.0000     0.      0.00 
  -1   6  11    387.44   11.87  0. 1.0000     0.      0.00 
   0   6  11    215.74    3.65  0. 1.0000     0.      0.00 
   1   6  11   1399.77   14.89  0. 1.0000     0.      0.00 
   2   6  11    235.36    3.67  0. 1.0000     0.      0.00 
   3   6  11      4.54    2.93  0. 1.0000     0.      0.00 
   4   6  11    104.70    2.52  0. 1.0000     0.      0.00 
   5   6  11    854.37   10.43  0. 1.0000     0.      0.00 
   6   6  11    213.82    5.04  0. 1.0000     0.      0.00 
   7   6  11     14.00    8.83  0. 1.0000     0.      0.00 
   8   6  11     14.68   17.20  0. 1.0000     0.      0.00 
   9   6  11     99.22   22.74  0. 1.0000     0.      0.00 
 -13   7  11     26.32   13.44  0. 1.0000     0.      0.00 
 -12   7  11      9.82    7.77  0. 1.0000     0.      0.00 
 -11   7  11    130.43    6.79  0. 1.0000     0.      0.00 
 -10   7  11     62.52    4.76  0. 1.0000     0.      0.00 
  -9   7  11    404.19    5.90  0. 1.0000     0.      0.00 
  -8   7  11     93.17    3.75  0. 1.0000     0.      0.00 
  -7   7  11    116.11    3.74  0. 1.0000     0.      0.00 
  -6   7  11   1255.98   20.70  0. 1.0000     0.      0.00 
  -5   7  11    747.61   44.37  0. 1.0000     0.      0.00 
  -4   7  11     16.26    9.06  0. 1.0000     0.      0.00 
  -3   7  11    400.04    8.04  0. 1.0000     0.      0.00 
  -2   7  11    194.58    3.82  0. 1.0000     0.      0.00 
  -1   7  11      0.00    2.62  0. 1.0000     0.      0.00 
   0   7  11     63.22    2.90  0. 1.0000     0.      0.00 
   1   7  11   1146.70   11.71  0. 1.0000     0.      0.00 
   2   7  11   1869.40   19.20  0. 1.0000     0.      0.00 
   3   7  11      0.00    2.63  0. 1.0000     0.      0.00 
   4   7  11     11.48    3.26  0. 1.0000     0.      0.00 
   5   7  11    142.85   10.64  0. 1.0000     0.      0.00 
   8   7  11    276.37   16.15  0. 1.0000     0.      0.00 
   9   7  11      2.68   10.53  0. 1.0000     0.      0.00 
 -12   8  11     25.78    6.00  0. 1.0000     0.      0.00 
 -11   8  11    122.46    7.92  0. 1.0000     0.      0.00 
 -10   8  11    953.55   22.23  0. 1.0000     0.      0.00 
  -9   8  11     69.15   15.29  0. 1.0000     0.      0.00 
  -8   8  11     43.09   35.80  0. 1.0000     0.      0.00 
  -7   8  11     61.18   33.22  0. 1.0000     0.      0.00 
  -6   8  11    592.00   13.12  0. 1.0000     0.      0.00 
  -5   8  11      3.30    3.36  0. 1.0000     0.      0.00 
  -4   8  11     84.86    3.18  0. 1.0000     0.      0.00 
  -3   8  11    379.40    7.19  0. 1.0000     0.      0.00 
  -2   8  11    886.28    9.78  0. 1.0000     0.      0.00 
  -1   8  11      0.00    3.33  0. 1.0000     0.      0.00 
   0   8  11    232.09    4.05  0. 1.0000     0.      0.00 
   1   8  11     14.35    2.93  0. 1.0000     0.      0.00 
   2   8  11    604.96   16.11  0. 1.0000     0.      0.00 
   4   8  11     26.23   32.64  0. 1.0000     0.      0.00 
   5   8  11     26.91   19.55  0. 1.0000     0.      0.00 
   6   8  11     45.46    8.81  0. 1.0000     0.      0.00 
   7   8  11     18.68    7.51  0. 1.0000     0.      0.00 
   8   8  11    475.75   12.94  0. 1.0000     0.      0.00 
 -12   9  11     12.44   15.73  0. 1.0000     0.      0.00 
 -11   9  11      0.00   47.37  0. 1.0000     0.      0.00 
 -10   9  11    602.53   42.29  0. 1.0000     0.      0.00 
  -9   9  11      2.05   12.68  0. 1.0000     0.      0.00 
  -8   9  11     88.39    6.85  0. 1.0000     0.      0.00 
  -7   9  11      6.28    4.54  0. 1.0000     0.      0.00 
  -6   9  11     76.67    3.57  0. 1.0000     0.      0.00 
  -5   9  11     33.51    2.58  0. 1.0000     0.      0.00 
  -4   9  11    355.00    5.89  0. 1.0000     0.      0.00 
  -3   9  11    427.49    6.47  0. 1.0000     0.      0.00 
  -2   9  11    795.48   10.63  0. 1.0000     0.      0.00 
  -1   9  11      1.74    7.39  0. 1.0000     0.      0.00 
   0   9  11    124.45   35.57  0. 1.0000     0.      0.00 
   2   9  11      4.11    8.94  0. 1.0000     0.      0.00 
   3   9  11      0.00    5.72  0. 1.0000     0.      0.00 
   4   9  11    462.91    9.46  0. 1.0000     0.      0.00 
   5   9  11    340.88    8.95  0. 1.0000     0.      0.00 
   6   9  11      2.31    5.95  0. 1.0000     0.      0.00 
   7   9  11      6.66    7.68  0. 1.0000     0.      0.00 
 -11  10  11     27.52   10.25  0. 1.0000     0.      0.00 
 -10  10  11      6.97    8.20  0. 1.0000     0.      0.00 
  -9  10  11     12.26    5.12  0. 1.0000     0.      0.00 
  -8  10  11    385.71    7.49  0. 1.0000     0.      0.00 
  -7  10  11    384.17    8.53  0. 1.0000     0.      0.00 
  -6  10  11    152.82    5.59  0. 1.0000     0.      0.00 
  -5  10  11      6.03    4.69  0. 1.0000     0.      0.00 
  -4  10  11    109.81   10.74  0. 1.0000     0.      0.00 
  -3  10  11    995.81   47.74  0. 1.0000     0.      0.00 
  -2  10  11    230.06   29.70  0. 1.0000     0.      0.00 
  -1  10  11      0.00    9.86  0. 1.0000     0.      0.00 
   0  10  11    177.64    5.91  0. 1.0000     0.      0.00 
   1  10  11    208.78    5.09  0. 1.0000     0.      0.00 
   2  10  11      0.00    4.50  0. 1.0000     0.      0.00 
   3  10  11    257.15    6.25  0. 1.0000     0.      0.00 
   4  10  11     96.31    6.44  0. 1.0000     0.      0.00 
   5  10  11    150.71    9.04  0. 1.0000     0.      0.00 
   6  10  11     12.77   14.37  0. 1.0000     0.      0.00 
 -11  11  11    118.35   11.60  0. 1.0000     0.      0.00 
 -10  11  11     14.59    6.48  0. 1.0000     0.      0.00 
  -9  11  11     15.59    8.53  0. 1.0000     0.      0.00 
  -8  11  11     75.15   14.06  0. 1.0000     0.      0.00 
  -7  11  11   1433.25  111.58  0. 1.0000     0.      0.00 
  -4  11  11      2.44   19.07  0. 1.0000     0.      0.00 
  -3  11  11    138.49   14.16  0. 1.0000     0.      0.00 
  -2  11  11     26.55    7.20  0. 1.0000     0.      0.00 
  -1  11  11    264.15    8.01  0. 1.0000     0.      0.00 
   0  11  11      8.59    4.21  0. 1.0000     0.      0.00 
   1  11  11    405.81    7.97  0. 1.0000     0.      0.00 
   2  11  11      8.22    6.19  0. 1.0000     0.      0.00 
   3  11  11     67.04   10.11  0. 1.0000     0.      0.00 
   4  11  11      0.00   21.50  0. 1.0000     0.      0.00 
  -8  12  11     27.06   27.79  0. 1.0000     0.      0.00 
  -7  12  11    282.12   21.19  0. 1.0000     0.      0.00 
  -6  12  11      0.96   10.56  0. 1.0000     0.      0.00 
  -5  12  11     86.52    7.64  0. 1.0000     0.      0.00 
  -4  12  11     17.74    4.97  0. 1.0000     0.      0.00 
  -3  12  11     35.32    4.35  0. 1.0000     0.      0.00 
  -2  12  11      6.48    4.58  0. 1.0000     0.      0.00 
  -1  12  11    346.10    8.45  0. 1.0000     0.      0.00 
   0  12  11    372.99   14.43  0. 1.0000     0.      0.00 
   1  12  11     53.89   24.87  0. 1.0000     0.      0.00 
   3  12  11     19.68   40.88  0. 1.0000     0.      0.00 
  -8  13  11     50.48   11.01  0. 1.0000     0.      0.00 
  -7  13  11     14.63    6.34  0. 1.0000     0.      0.00 
  -6  13  11     21.78    4.88  0. 1.0000     0.      0.00 
  -5  13  11    223.56    6.61  0. 1.0000     0.      0.00 
  -4  13  11    506.49   12.39  0. 1.0000     0.      0.00 
  -3  13  11     27.60   16.47  0. 1.0000     0.      0.00 
  -2  13  11      9.39   29.05  0. 1.0000     0.      0.00 
  -1  13  11      1.97   58.93  0. 1.0000     0.      0.00 
   1  13  11      6.62   17.67  0. 1.0000     0.      0.00 
  -5  14  11     14.36   38.02  0. 1.0000     0.      0.00 
  -4  14  11    649.26   64.30  0. 1.0000     0.      0.00 
  -3  14  11      0.00   34.78  0. 1.0000     0.      0.00 
  -2  14  11     11.08   11.60  0. 1.0000     0.      0.00 
   0 -14  12      0.00    9.11  0. 1.0000     0.      0.00 
   1 -14  12      5.43    9.75  0. 1.0000     0.      0.00 
   2 -14  12     43.16   12.68  0. 1.0000     0.      0.00 
   3 -14  12      4.18   23.88  0. 1.0000     0.      0.00 
   4 -14  12      0.00   36.04  0. 1.0000     0.      0.00 
   5 -14  12     95.07   17.20  0. 1.0000     0.      0.00 
   6 -14  12     35.57   11.63  0. 1.0000     0.      0.00 
  -2 -13  12      5.46    9.84  0. 1.0000     0.      0.00 
  -1 -13  12      9.56   12.07  0. 1.0000     0.      0.00 
   0 -13  12      0.00   36.01  0. 1.0000     0.      0.00 
   1 -13  12     35.53   38.14  0. 1.0000     0.      0.00 
   2 -13  12      8.90   14.78  0. 1.0000     0.      0.00 
   3 -13  12      8.91    7.28  0. 1.0000     0.      0.00 
   4 -13  12    237.17    7.48  0. 1.0000     0.      0.00 
   5 -13  12     52.87    5.66  0. 1.0000     0.      0.00 
   6 -13  12     65.44    5.48  0. 1.0000     0.      0.00 
   7 -13  12     47.77    6.43  0. 1.0000     0.      0.00 
   8 -13  12     27.98    8.92  0. 1.0000     0.      0.00 
   9 -13  12     45.60   26.04  0. 1.0000     0.      0.00 
  -4 -12  12     20.60   13.97  0. 1.0000     0.      0.00 
  -3 -12  12     49.20   25.25  0. 1.0000     0.      0.00 
  -2 -12  12     57.25   67.81  0. 1.0000     0.      0.00 
  -1 -12  12      9.20   13.43  0. 1.0000     0.      0.00 
   0 -12  12    280.57    8.60  0. 1.0000     0.      0.00 
   1 -12  12      8.49    5.46  0. 1.0000     0.      0.00 
   2 -12  12    195.94    5.93  0. 1.0000     0.      0.00 
   3 -12  12      0.00    3.74  0. 1.0000     0.      0.00 
   4 -12  12      0.00    4.30  0. 1.0000     0.      0.00 
   5 -12  12      0.00    5.44  0. 1.0000     0.      0.00 
   6 -12  12    149.14    9.28  0. 1.0000     0.      0.00 
   7 -12  12     20.25   12.95  0. 1.0000     0.      0.00 
   8 -12  12     33.97   21.69  0. 1.0000     0.      0.00 
   9 -12  12     36.67   40.46  0. 1.0000     0.      0.00 
  10 -12  12     61.95   22.52  0. 1.0000     0.      0.00 
  -6 -11  12     26.95   28.82  0. 1.0000     0.      0.00 
  -5 -11  12      0.00   54.57  0. 1.0000     0.      0.00 
  -4 -11  12     21.40   18.82  0. 1.0000     0.      0.00 
  -3 -11  12     30.05    7.80  0. 1.0000     0.      0.00 
  -2 -11  12      4.38    5.57  0. 1.0000     0.      0.00 
  -1 -11  12     80.07    5.43  0. 1.0000     0.      0.00 
   0 -11  12    343.21    7.46  0. 1.0000     0.      0.00 
   1 -11  12     71.56    4.32  0. 1.0000     0.      0.00 
   2 -11  12    189.02    6.74  0. 1.0000     0.      0.00 
   3 -11  12     64.61    5.66  0. 1.0000     0.      0.00 
   4 -11  12     18.18    8.22  0. 1.0000     0.      0.00 
   5 -11  12      0.00   18.83  0. 1.0000     0.      0.00 
   6 -11  12    249.04   32.83  0. 1.0000     0.      0.00 
   7 -11  12    201.88   12.49  0. 1.0000     0.      0.00 
   8 -11  12    155.58    8.07  0. 1.0000     0.      0.00 
   9 -11  12      6.92    6.82  0. 1.0000     0.      0.00 
  10 -11  12     11.22    6.00  0. 1.0000     0.      0.00 
  11 -11  12      4.39    5.98  0. 1.0000     0.      0.00 
  -7 -10  12     44.64   24.27  0. 1.0000     0.      0.00 
  -6 -10  12     16.50    8.95  0. 1.0000     0.      0.00 
  -5 -10  12     17.92    7.28  0. 1.0000     0.      0.00 
  -4 -10  12    114.05    6.22  0. 1.0000     0.      0.00 
  -3 -10  12    177.91    5.24  0. 1.0000     0.      0.00 
  -2 -10  12     90.25    4.49  0. 1.0000     0.      0.00 
  -1 -10  12     19.95    3.83  0. 1.0000     0.      0.00 
   0 -10  12     19.93    4.31  0. 1.0000     0.      0.00 
   1 -10  12     13.95    5.94  0. 1.0000     0.      0.00 
   2 -10  12     61.11   13.55  0. 1.0000     0.      0.00 
   3 -10  12    244.74   21.32  0. 1.0000     0.      0.00 
   4 -10  12     67.81    6.33  0. 1.0000     0.      0.00 
   5 -10  12     43.89    4.38  0. 1.0000     0.      0.00 
   6 -10  12     26.25    4.77  0. 1.0000     0.      0.00 
   7 -10  12    228.97    6.63  0. 1.0000     0.      0.00 
   8 -10  12     19.40    3.96  0. 1.0000     0.      0.00 
   9 -10  12     36.40    5.56  0. 1.0000     0.      0.00 
  10 -10  12     71.18    7.34  0. 1.0000     0.      0.00 
  11 -10  12     20.28   10.69  0. 1.0000     0.      0.00 
  -8  -9  12     12.75   10.41  0. 1.0000     0.      0.00 
  -7  -9  12     10.66    7.55  0. 1.0000     0.      0.00 
  -6  -9  12      5.37    5.73  0. 1.0000     0.      0.00 
  -5  -9  12    156.84    6.69  0. 1.0000     0.      0.00 
  -4  -9  12     15.12    6.18  0. 1.0000     0.      0.00 
  -3  -9  12    306.22    5.97  0. 1.0000     0.      0.00 
  -2  -9  12     33.47    5.33  0. 1.0000     0.      0.00 
  -1  -9  12      0.00   17.25  0. 1.0000     0.      0.00 
   0  -9  12     94.82   20.32  0. 1.0000     0.      0.00 
   1  -9  12      0.00    3.54  0. 1.0000     0.      0.00 
   2  -9  12      8.39    4.09  0. 1.0000     0.      0.00 
   3  -9  12   2002.42   22.46  0. 1.0000     0.      0.00 
   4  -9  12      7.17    2.55  0. 1.0000     0.      0.00 
   5  -9  12     54.00    2.52  0. 1.0000     0.      0.00 
   6  -9  12     68.48    3.15  0. 1.0000     0.      0.00 
   7  -9  12      0.00    4.00  0. 1.0000     0.      0.00 
   8  -9  12     17.07    5.90  0. 1.0000     0.      0.00 
   9  -9  12    610.41   24.63  0. 1.0000     0.      0.00 
  10  -9  12      0.00   15.11  0. 1.0000     0.      0.00 
  11  -9  12    132.49   45.11  0. 1.0000     0.      0.00 
  12  -9  12      6.55   26.02  0. 1.0000     0.      0.00 
  -9  -8  12      9.48    8.10  0. 1.0000     0.      0.00 
  -8  -8  12      0.02    7.40  0. 1.0000     0.      0.00 
  -7  -8  12    249.79    9.28  0. 1.0000     0.      0.00 
  -6  -8  12     33.66    7.80  0. 1.0000     0.      0.00 
  -5  -8  12     70.53    7.78  0. 1.0000     0.      0.00 
  -4  -8  12    164.82   51.74  0. 1.0000     0.      0.00 
  -3  -8  12      0.00   44.33  0. 1.0000     0.      0.00 
  -2  -8  12     27.16    3.98  0. 1.0000     0.      0.00 
  -1  -8  12    826.90   11.79  0. 1.0000     0.      0.00 
   0  -8  12     18.34    2.62  0. 1.0000     0.      0.00 
   1  -8  12     77.98    3.10  0. 1.0000     0.      0.00 
   2  -8  12     69.07    2.23  0. 1.0000     0.      0.00 
   3  -8  12    301.78    4.92  0. 1.0000     0.      0.00 
   4  -8  12     37.70    3.52  0. 1.0000     0.      0.00 
   5  -8  12    194.76    4.34  0. 1.0000     0.      0.00 
   6  -8  12      0.00    5.18  0. 1.0000     0.      0.00 
   7  -8  12      0.00   12.37  0. 1.0000     0.      0.00 
   8  -8  12     50.80   20.80  0. 1.0000     0.      0.00 
   9  -8  12    358.04   18.45  0. 1.0000     0.      0.00 
  10  -8  12    316.20   13.72  0. 1.0000     0.      0.00 
  11  -8  12      8.53    7.66  0. 1.0000     0.      0.00 
  12  -8  12     10.92    6.24  0. 1.0000     0.      0.00 
  -9  -7  12     27.39    9.25  0. 1.0000     0.      0.00 
  -8  -7  12     25.54   13.14  0. 1.0000     0.      0.00 
  -7  -7  12     98.57   25.80  0. 1.0000     0.      0.00 
  -6  -7  12      7.11   16.06  0. 1.0000     0.      0.00 
  -5  -7  12     82.85    5.45  0. 1.0000     0.      0.00 
  -4  -7  12    277.82    5.25  0. 1.0000     0.      0.00 
  -3  -7  12     52.88    3.37  0. 1.0000     0.      0.00 
  -2  -7  12   1074.90   11.93  0. 1.0000     0.      0.00 
  -1  -7  12    925.91   11.94  0. 1.0000     0.      0.00 
   0  -7  12    523.81    6.25  0. 1.0000     0.      0.00 
   1  -7  12    100.24    3.22  0. 1.0000     0.      0.00 
   2  -7  12    143.24    4.45  0. 1.0000     0.      0.00 
   3  -7  12      0.00    2.94  0. 1.0000     0.      0.00 
   4  -7  12     65.90    7.24  0. 1.0000     0.      0.00 
   5  -7  12    316.73   22.66  0. 1.0000     0.      0.00 
   6  -7  12   1256.79   21.28  0. 1.0000     0.      0.00 
   7  -7  12     29.48    3.54  0. 1.0000     0.      0.00 
   8  -7  12      3.43    3.49  0. 1.0000     0.      0.00 
   9  -7  12      9.13    3.81  0. 1.0000     0.      0.00 
  10  -7  12    130.24    4.93  0. 1.0000     0.      0.00 
  11  -7  12      0.00    5.19  0. 1.0000     0.      0.00 
  12  -7  12    134.53    8.95  0. 1.0000     0.      0.00 
  13  -7  12     42.47   12.31  0. 1.0000     0.      0.00 
 -10  -6  12     29.78   28.54  0. 1.0000     0.      0.00 
  -9  -6  12     60.44   30.45  0. 1.0000     0.      0.00 
  -8  -6  12     69.63   10.56  0. 1.0000     0.      0.00 
  -7  -6  12     10.40    5.01  0. 1.0000     0.      0.00 
  -6  -6  12    226.50    5.30  0. 1.0000     0.      0.00 
  -5  -6  12     77.25    3.18  0. 1.0000     0.      0.00 
  -4  -6  12    299.43    4.36  0. 1.0000     0.      0.00 
  -3  -6  12      6.22    2.11  0. 1.0000     0.      0.00 
  -2  -6  12    412.03    5.64  0. 1.0000     0.      0.00 
  -1  -6  12     75.82    2.64  0. 1.0000     0.      0.00 
   0  -6  12    139.34    3.48  0. 1.0000     0.      0.00 
   1  -6  12     60.10    6.04  0. 1.0000     0.      0.00 
   2  -6  12    215.56    7.43  0. 1.0000     0.      0.00 
   3  -6  12     25.02    2.52  0. 1.0000     0.      0.00 
   4  -6  12    208.24    3.75  0. 1.0000     0.      0.00 
   5  -6  12     91.38    9.30  0. 1.0000     0.      0.00 
   6  -6  12   1737.59   17.70  0. 1.0000     0.      0.00 
   7  -6  12      0.00    1.88  0. 1.0000     0.      0.00 
   8  -6  12      5.50    2.70  0. 1.0000     0.      0.00 
   9  -6  12     20.24    3.96  0. 1.0000     0.      0.00 
  10  -6  12     14.93    9.07  0. 1.0000     0.      0.00 
  11  -6  12     56.86   10.35  0. 1.0000     0.      0.00 
  12  -6  12    714.70   30.54  0. 1.0000     0.      0.00 
  13  -6  12      0.00   32.72  0. 1.0000     0.      0.00 
 -11  -5  12      0.00   19.19  0. 1.0000     0.      0.00 
 -10  -5  12     58.59    8.67  0. 1.0000     0.      0.00 
  -9  -5  12     45.84    6.34  0. 1.0000     0.      0.00 
  -8  -5  12     82.81    4.72  0. 1.0000     0.      0.00 
  -7  -5  12     55.02    3.05  0. 1.0000     0.      0.00 
  -6  -5  12    738.42   10.88  0. 1.0000     0.      0.00 
  -5  -5  12     56.35    2.89  0. 1.0000     0.      0.00 
  -4  -5  12    840.07    8.56  0. 1.0000     0.      0.00 
  -3  -5  12     26.71    3.62  0. 1.0000     0.      0.00 
  -2  -5  12     13.29    2.89  0. 1.0000     0.      0.00 
  -1  -5  12    182.90    4.85  0. 1.0000     0.      0.00 
   0  -5  12     24.26    1.87  0. 1.0000     0.      0.00 
   1  -5  12   1342.32   25.21  0. 1.0000     0.      0.00 
   2  -5  12   3335.42   31.75  0. 1.0000     0.      0.00 
   3  -5  12     43.10    2.07  0. 1.0000     0.      0.00 
   4  -5  12     11.25    1.18  0. 1.0000     0.      0.00 
   5  -5  12     24.87    3.75  0. 1.0000     0.      0.00 
   6  -5  12     47.36    4.18  0. 1.0000     0.      0.00 
   7  -5  12    223.77    4.22  0. 1.0000     0.      0.00 
   8  -5  12    535.19   10.42  0. 1.0000     0.      0.00 
   9  -5  12    108.44   14.59  0. 1.0000     0.      0.00 
  10  -5  12      0.00   38.67  0. 1.0000     0.      0.00 
  11  -5  12     58.08   13.75  0. 1.0000     0.      0.00 
  12  -5  12     79.29   10.81  0. 1.0000     0.      0.00 
  13  -5  12    167.92   11.66  0. 1.0000     0.      0.00 
 -11  -4  12      3.98    6.21  0. 1.0000     0.      0.00 
 -10  -4  12     21.80    5.30  0. 1.0000     0.      0.00 
  -9  -4  12     70.59    5.04  0. 1.0000     0.      0.00 
  -8  -4  12    143.72    4.63  0. 1.0000     0.      0.00 
  -7  -4  12     99.62    4.07  0. 1.0000     0.      0.00 
  -6  -4  12    210.48    5.24  0. 1.0000     0.      0.00 
  -5  -4  12      6.50    5.12  0. 1.0000     0.      0.00 
  -4  -4  12     19.24    3.96  0. 1.0000     0.      0.00 
  -3  -4  12    418.95    7.62  0. 1.0000     0.      0.00 
  -2  -4  12    414.94    5.98  0. 1.0000     0.      0.00 
  -1  -4  12      5.26    1.47  0. 1.0000     0.      0.00 
   0  -4  12     37.36    1.27  0. 1.0000     0.      0.00 
   1  -4  12   2595.98   29.20  0. 1.0000     0.      0.00 
   2  -4  12    662.77   16.06  0. 1.0000     0.      0.00 
   3  -4  12     58.85    1.83  0. 1.0000     0.      0.00 
   4  -4  12     30.87    2.02  0. 1.0000     0.      0.00 
   5  -4  12     28.82    2.60  0. 1.0000     0.      0.00 
   6  -4  12     17.45    1.76  0. 1.0000     0.      0.00 
   7  -4  12    806.80   25.20  0. 1.0000     0.      0.00 
   8  -4  12    202.74    5.84  0. 1.0000     0.      0.00 
   9  -4  12    792.23   13.43  0. 1.0000     0.      0.00 
  10  -4  12      7.51    4.18  0. 1.0000     0.      0.00 
  11  -4  12     26.46    4.84  0. 1.0000     0.      0.00 
  12  -4  12      7.24    4.09  0. 1.0000     0.      0.00 
  13  -4  12    100.89    6.83  0. 1.0000     0.      0.00 
 -12  -3  12     11.01    6.52  0. 1.0000     0.      0.00 
 -11  -3  12     16.97    6.43  0. 1.0000     0.      0.00 
 -10  -3  12     33.98    7.23  0. 1.0000     0.      0.00 
  -9  -3  12    541.82   14.07  0. 1.0000     0.      0.00 
  -8  -3  12     50.97   13.62  0. 1.0000     0.      0.00 
  -7  -3  12     33.34    7.60  0. 1.0000     0.      0.00 
  -6  -3  12    133.70    5.25  0. 1.0000     0.      0.00 
  -5  -3  12    502.46    6.33  0. 1.0000     0.      0.00 
  -4  -3  12     88.66    2.74  0. 1.0000     0.      0.00 
  -3  -3  12   4162.70   38.36  0. 1.0000     0.      0.00 
  -2  -3  12    375.67   10.09  0. 1.0000     0.      0.00 
  -1  -3  12    275.37    2.93  0. 1.0000     0.      0.00 
   0  -3  12     62.69    1.62  0. 1.0000     0.      0.00 
   1  -3  12     10.59    1.38  0. 1.0000     0.      0.00 
   2  -3  12     21.18    5.98  0. 1.0000     0.      0.00 
   3  -3  12    558.90    8.39  0. 1.0000     0.      0.00 
   4  -3  12      0.00    2.26  0. 1.0000     0.      0.00 
   5  -3  12   1182.52   14.01  0. 1.0000     0.      0.00 
   6  -3  12      2.33    2.25  0. 1.0000     0.      0.00 
   7  -3  12     59.98    3.60  0. 1.0000     0.      0.00 
   8  -3  12    173.54    3.60  0. 1.0000     0.      0.00 
   9  -3  12    430.90    7.94  0. 1.0000     0.      0.00 
  10  -3  12      5.66    3.57  0. 1.0000     0.      0.00 
  11  -3  12     49.82    6.57  0. 1.0000     0.      0.00 
  12  -3  12     21.03   10.46  0. 1.0000     0.      0.00 
  13  -3  12     22.39   13.73  0. 1.0000     0.      0.00 
 -12  -2  12     10.60   12.73  0. 1.0000     0.      0.00 
 -11  -2  12    142.14   29.14  0. 1.0000     0.      0.00 
 -10  -2  12     49.30   26.84  0. 1.0000     0.      0.00 
  -9  -2  12      7.69    6.42  0. 1.0000     0.      0.00 
  -8  -2  12     25.31    3.90  0. 1.0000     0.      0.00 
  -7  -2  12    419.93    5.96  0. 1.0000     0.      0.00 
  -6  -2  12     27.01    3.22  0. 1.0000     0.      0.00 
  -5  -2  12     26.29    1.63  0. 1.0000     0.      0.00 
  -4  -2  12    189.90    4.16  0. 1.0000     0.      0.00 
  -3  -2  12   2247.84   21.49  0. 1.0000     0.      0.00 
  -2  -2  12    241.04    7.17  0. 1.0000     0.      0.00 
  -1  -2  12    363.03    4.66  0. 1.0000     0.      0.00 
   0  -2  12     89.08    4.17  0. 1.0000     0.      0.00 
   1  -2  12     12.15    2.77  0. 1.0000     0.      0.00 
   2  -2  12     13.40    1.21  0. 1.0000     0.      0.00 
   3  -2  12    991.77   11.21  0. 1.0000     0.      0.00 
   4  -2  12   2601.76   29.25  0. 1.0000     0.      0.00 
   5  -2  12   1499.42   22.16  0. 1.0000     0.      0.00 
   6  -2  12     26.36    1.41  0. 1.0000     0.      0.00 
   7  -2  12     17.90    2.12  0. 1.0000     0.      0.00 
   8  -2  12    104.23    3.30  0. 1.0000     0.      0.00 
   9  -2  12     44.28    4.13  0. 1.0000     0.      0.00 
  10  -2  12    333.03   10.84  0. 1.0000     0.      0.00 
  11  -2  12    469.40   28.00  0. 1.0000     0.      0.00 
  12  -2  12     60.61   25.57  0. 1.0000     0.      0.00 
  13  -2  12     26.66   19.14  0. 1.0000     0.      0.00 
 -12  -1  12     18.31   12.79  0. 1.0000     0.      0.00 
 -11  -1  12     37.87    6.92  0. 1.0000     0.      0.00 
 -10  -1  12     72.53    7.14  0. 1.0000     0.      0.00 
  -9  -1  12    112.18    3.64  0. 1.0000     0.      0.00 
  -8  -1  12    263.00    5.61  0. 1.0000     0.      0.00 
  -7  -1  12    927.61   11.55  0. 1.0000     0.      0.00 
  -6  -1  12    922.55   13.49  0. 1.0000     0.      0.00 
  -5  -1  12    414.21    5.43  0. 1.0000     0.      0.00 
  -4  -1  12      1.63    1.77  0. 1.0000     0.      0.00 
  -3  -1  12     31.80    5.19  0. 1.0000     0.      0.00 
  -2  -1  12     41.10    2.38  0. 1.0000     0.      0.00 
  -1  -1  12     20.45    2.02  0. 1.0000     0.      0.00 
   0  -1  12   4120.91   37.38  0. 1.0000     0.      0.00 
   1  -1  12    882.79    8.41  0. 1.0000     0.      0.00 
   2  -1  12     15.46    1.13  0. 1.0000     0.      0.00 
   3  -1  12      2.92    0.79  0. 1.0000     0.      0.00 
   4  -1  12   1727.49   25.67  0. 1.0000     0.      0.00 
   5  -1  12     10.93    2.80  0. 1.0000     0.      0.00 
   6  -1  12     94.96    2.67  0. 1.0000     0.      0.00 
   7  -1  12     78.43    3.04  0. 1.0000     0.      0.00 
   8  -1  12    154.82   12.24  0. 1.0000     0.      0.00 
   9  -1  12      0.00   29.67  0. 1.0000     0.      0.00 
  10  -1  12    526.83   18.54  0. 1.0000     0.      0.00 
  11  -1  12      7.65    8.73  0. 1.0000     0.      0.00 
  12  -1  12    147.67    7.48  0. 1.0000     0.      0.00 
  13  -1  12     12.51    6.25  0. 1.0000     0.      0.00 
 -13   0  12      7.01    8.47  0. 1.0000     0.      0.00 
 -12   0  12     28.73    5.82  0. 1.0000     0.      0.00 
 -11   0  12     18.65    5.53  0. 1.0000     0.      0.00 
 -10   0  12     46.58    4.22  0. 1.0000     0.      0.00 
  -9   0  12      9.11    3.71  0. 1.0000     0.      0.00 
  -8   0  12    266.08    5.91  0. 1.0000     0.      0.00 
  -7   0  12    187.60   11.11  0. 1.0000     0.      0.00 
  -6   0  12    375.39    9.83  0. 1.0000     0.      0.00 
  -5   0  12      0.00    3.38  0. 1.0000     0.      0.00 
  -4   0  12     63.96    2.04  0. 1.0000     0.      0.00 
  -3   0  12     17.21    1.38  0. 1.0000     0.      0.00 
  -2   0  12     45.08    1.66  0. 1.0000     0.      0.00 
  -1   0  12     59.54    1.44  0. 1.0000     0.      0.00 
   0   0  12   7726.12   81.01  0. 1.0000     0.      0.00 
   1   0  12     72.56    1.44  0. 1.0000     0.      0.00 
   2   0  12    203.40    2.64  0. 1.0000     0.      0.00 
   3   0  12      2.54    1.27  0. 1.0000     0.      0.00 
   4   0  12     19.09    1.48  0. 1.0000     0.      0.00 
   5   0  12    162.07    4.57  0. 1.0000     0.      0.00 
   6   0  12   1623.35   49.90  0. 1.0000     0.      0.00 
   7   0  12     85.79    3.37  0. 1.0000     0.      0.00 
   8   0  12    348.77    5.73  0. 1.0000     0.      0.00 
   9   0  12      0.00    3.61  0. 1.0000     0.      0.00 
  10   0  12      9.30    4.90  0. 1.0000     0.      0.00 
  11   0  12    136.84    5.03  0. 1.0000     0.      0.00 
  12   0  12    103.80    7.01  0. 1.0000     0.      0.00 
  13   0  12      0.00   46.59  0. 1.0000     0.      0.00 
 -13   1  12     12.14    6.50  0. 1.0000     0.      0.00 
 -12   1  12     52.90    6.02  0. 1.0000     0.      0.00 
 -11   1  12     50.94    9.51  0. 1.0000     0.      0.00 
 -10   1  12    737.09   14.42  0. 1.0000     0.      0.00 
  -9   1  12      5.61    8.01  0. 1.0000     0.      0.00 
  -8   1  12     11.14    5.37  0. 1.0000     0.      0.00 
  -7   1  12     20.31    3.38  0. 1.0000     0.      0.00 
  -6   1  12    101.35    2.77  0. 1.0000     0.      0.00 
  -5   1  12    469.98    6.64  0. 1.0000     0.      0.00 
  -4   1  12   3661.74   38.58  0. 1.0000     0.      0.00 
  -3   1  12      2.59    0.85  0. 1.0000     0.      0.00 
  -2   1  12     74.02    1.43  0. 1.0000     0.      0.00 
  -1   1  12     72.24    3.52  0. 1.0000     0.      0.00 
   0   1  12    453.36   14.90  0. 1.0000     0.      0.00 
   1   1  12    345.16    3.75  0. 1.0000     0.      0.00 
   2   1  12    362.24    6.61  0. 1.0000     0.      0.00 
   3   1  12    217.31   12.02  0. 1.0000     0.      0.00 
   4   1  12    235.66    3.82  0. 1.0000     0.      0.00 
   5   1  12     57.19    2.91  0. 1.0000     0.      0.00 
   6   1  12    470.34    7.18  0. 1.0000     0.      0.00 
   7   1  12   1403.79   16.22  0. 1.0000     0.      0.00 
   8   1  12    100.08    2.94  0. 1.0000     0.      0.00 
   9   1  12     50.03    3.64  0. 1.0000     0.      0.00 
  10   1  12     10.72    6.66  0. 1.0000     0.      0.00 
  11   1  12    123.29   10.23  0. 1.0000     0.      0.00 
  12   1  12     22.83   14.23  0. 1.0000     0.      0.00 
 -13   2  12      0.00   13.53  0. 1.0000     0.      0.00 
 -12   2  12      0.00   37.54  0. 1.0000     0.      0.00 
 -11   2  12      2.55   17.76  0. 1.0000     0.      0.00 
 -10   2  12     47.63    7.11  0. 1.0000     0.      0.00 
  -9   2  12     75.83    4.09  0. 1.0000     0.      0.00 
  -8   2  12     62.81    3.28  0. 1.0000     0.      0.00 
  -7   2  12     44.05    2.32  0. 1.0000     0.      0.00 
  -6   2  12      3.60    1.50  0. 1.0000     0.      0.00 
  -5   2  12   1742.75   24.96  0. 1.0000     0.      0.00 
  -4   2  12   1774.38   23.91  0. 1.0000     0.      0.00 
  -3   2  12    574.24    8.88  0. 1.0000     0.      0.00 
  -2   2  12      9.04    1.31  0. 1.0000     0.      0.00 
  -1   2  12     10.85    4.36  0. 1.0000     0.      0.00 
   0   2  12     95.41   12.43  0. 1.0000     0.      0.00 
   1   2  12    333.63    4.07  0. 1.0000     0.      0.00 
   2   2  12    340.15    5.20  0. 1.0000     0.      0.00 
   3   2  12   4202.61   39.22  0. 1.0000     0.      0.00 
   4   2  12    124.47    2.37  0. 1.0000     0.      0.00 
   5   2  12    171.77    2.97  0. 1.0000     0.      0.00 
   6   2  12     81.67    2.47  0. 1.0000     0.      0.00 
   7   2  12    774.70    9.44  0. 1.0000     0.      0.00 
   8   2  12      0.00    4.24  0. 1.0000     0.      0.00 
   9   2  12    286.10   12.91  0. 1.0000     0.      0.00 
  10   2  12     29.85   14.96  0. 1.0000     0.      0.00 
  11   2  12     38.18   34.51  0. 1.0000     0.      0.00 
  12   2  12     11.35   22.93  0. 1.0000     0.      0.00 
 -13   3  12     20.39   15.06  0. 1.0000     0.      0.00 
 -12   3  12      3.49    8.60  0. 1.0000     0.      0.00 
 -11   3  12     95.64    6.47  0. 1.0000     0.      0.00 
 -10   3  12     15.04    3.74  0. 1.0000     0.      0.00 
  -9   3  12    657.98    9.11  0. 1.0000     0.      0.00 
  -8   3  12     39.38    2.67  0. 1.0000     0.      0.00 
  -7   3  12    506.81    6.48  0. 1.0000     0.      0.00 
  -6   3  12     96.75    2.64  0. 1.0000     0.      0.00 
  -5   3  12    136.11    5.90  0. 1.0000     0.      0.00 
  -4   3  12     73.45    4.18  0. 1.0000     0.      0.00 
  -3   3  12    102.70    6.88  0. 1.0000     0.      0.00 
  -2   3  12     45.30    1.83  0. 1.0000     0.      0.00 
  -1   3  12   1294.41   13.71  0. 1.0000     0.      0.00 
   0   3  12      7.71    1.32  0. 1.0000     0.      0.00 
   1   3  12     53.45    1.49  0. 1.0000     0.      0.00 
   2   3  12    363.05    5.77  0. 1.0000     0.      0.00 
   3   3  12   2522.46   25.26  0. 1.0000     0.      0.00 
   4   3  12      3.64    1.72  0. 1.0000     0.      0.00 
   5   3  12     14.94    2.35  0. 1.0000     0.      0.00 
   6   3  12     59.61    5.43  0. 1.0000     0.      0.00 
   7   3  12    180.64   33.86  0. 1.0000     0.      0.00 
   9   3  12    654.49   27.94  0. 1.0000     0.      0.00 
  10   3  12     91.82    8.75  0. 1.0000     0.      0.00 
  11   3  12     12.41    6.70  0. 1.0000     0.      0.00 
 -13   4  12     18.49    7.49  0. 1.0000     0.      0.00 
 -12   4  12     11.26    5.14  0. 1.0000     0.      0.00 
 -11   4  12      7.09    4.74  0. 1.0000     0.      0.00 
 -10   4  12      7.61    4.18  0. 1.0000     0.      0.00 
  -9   4  12    761.84   12.99  0. 1.0000     0.      0.00 
  -8   4  12    114.56    6.67  0. 1.0000     0.      0.00 
  -7   4  12    424.75   23.78  0. 1.0000     0.      0.00 
  -6   4  12     15.41    3.69  0. 1.0000     0.      0.00 
  -5   4  12     57.02    2.38  0. 1.0000     0.      0.00 
  -4   4  12      4.85    1.24  0. 1.0000     0.      0.00 
  -3   4  12    133.00    2.28  0. 1.0000     0.      0.00 
  -2   4  12   1523.34   15.15  0. 1.0000     0.      0.00 
  -1   4  12   3912.29   35.74  0. 1.0000     0.      0.00 
   0   4  12      0.00    3.90  0. 1.0000     0.      0.00 
   1   4  12    101.02    2.11  0. 1.0000     0.      0.00 
   2   4  12    226.44    3.44  0. 1.0000     0.      0.00 
   3   4  12     53.81    3.44  0. 1.0000     0.      0.00 
   4   4  12    203.55   16.36  0. 1.0000     0.      0.00 
   5   4  12    650.75   76.08  0. 1.0000     0.      0.00 
   6   4  12    355.16    8.62  0. 1.0000     0.      0.00 
   7   4  12      6.68    3.98  0. 1.0000     0.      0.00 
   8   4  12      4.67    4.60  0. 1.0000     0.      0.00 
   9   4  12     11.85    4.90  0. 1.0000     0.      0.00 
  10   4  12    372.54    7.96  0. 1.0000     0.      0.00 
  11   4  12     20.32    7.17  0. 1.0000     0.      0.00 
 -13   5  12     30.91    8.17  0. 1.0000     0.      0.00 
 -12   5  12    244.25    9.73  0. 1.0000     0.      0.00 
 -11   5  12    248.46   12.08  0. 1.0000     0.      0.00 
 -10   5  12      7.37   19.90  0. 1.0000     0.      0.00 
  -9   5  12     13.57   13.30  0. 1.0000     0.      0.00 
  -8   5  12     36.14    5.72  0. 1.0000     0.      0.00 
  -7   5  12     12.14    3.02  0. 1.0000     0.      0.00 
  -6   5  12    765.96   10.89  0. 1.0000     0.      0.00 
  -5   5  12    436.61    5.22  0. 1.0000     0.      0.00 
  -4   5  12      3.01    1.27  0. 1.0000     0.      0.00 
  -3   5  12     95.09    3.14  0. 1.0000     0.      0.00 
  -2   5  12   1870.04   22.32  0. 1.0000     0.      0.00 
  -1   5  12     69.09    2.53  0. 1.0000     0.      0.00 
   0   5  12     93.45    2.73  0. 1.0000     0.      0.00 
   1   5  12      1.60    9.37  0. 1.0000     0.      0.00 
   2   5  12    215.63   26.34  0. 1.0000     0.      0.00 
   3   5  12      0.00    4.70  0. 1.0000     0.      0.00 
   4   5  12    549.59    7.17  0. 1.0000     0.      0.00 
   5   5  12     68.56    3.62  0. 1.0000     0.      0.00 
   6   5  12   1171.53   13.38  0. 1.0000     0.      0.00 
   7   5  12      4.60    2.96  0. 1.0000     0.      0.00 
   8   5  12     36.63    5.31  0. 1.0000     0.      0.00 
   9   5  12     17.83    7.06  0. 1.0000     0.      0.00 
  10   5  12    226.34   16.00  0. 1.0000     0.      0.00 
 -13   6  12      2.88   24.68  0. 1.0000     0.      0.00 
 -12   6  12    263.98   33.10  0. 1.0000     0.      0.00 
 -11   6  12     16.89   11.79  0. 1.0000     0.      0.00 
 -10   6  12     28.39    8.48  0. 1.0000     0.      0.00 
  -9   6  12     15.25    4.03  0. 1.0000     0.      0.00 
  -8   6  12     42.78    3.11  0. 1.0000     0.      0.00 
  -7   6  12      4.92    1.80  0. 1.0000     0.      0.00 
  -6   6  12   2750.73   28.44  0. 1.0000     0.      0.00 
  -5   6  12     22.48    3.72  0. 1.0000     0.      0.00 
  -4   6  12     68.71    2.76  0. 1.0000     0.      0.00 
  -3   6  12      6.71    2.53  0. 1.0000     0.      0.00 
  -2   6  12     16.32    6.46  0. 1.0000     0.      0.00 
  -1   6  12    306.10   26.12  0. 1.0000     0.      0.00 
   0   6  12    607.78    9.28  0. 1.0000     0.      0.00 
   1   6  12      2.29    4.06  0. 1.0000     0.      0.00 
   2   6  12   1355.79   14.60  0. 1.0000     0.      0.00 
   3   6  12      0.00    3.55  0. 1.0000     0.      0.00 
   4   6  12      7.33    1.82  0. 1.0000     0.      0.00 
   5   6  12    431.43    6.09  0. 1.0000     0.      0.00 
   6   6  12    408.13    7.72  0. 1.0000     0.      0.00 
   7   6  12      5.95    8.05  0. 1.0000     0.      0.00 
   8   6  12     41.39   17.33  0. 1.0000     0.      0.00 
   9   6  12      0.00   22.85  0. 1.0000     0.      0.00 
  10   6  12     95.42   61.85  0. 1.0000     0.      0.00 
 -13   7  12      6.56    5.67  0. 1.0000     0.      0.00 
 -12   7  12      9.02    7.30  0. 1.0000     0.      0.00 
 -11   7  12     10.93    6.84  0. 1.0000     0.      0.00 
 -10   7  12    320.15    7.00  0. 1.0000     0.      0.00 
  -9   7  12     33.43    3.52  0. 1.0000     0.      0.00 
  -8   7  12     35.94    3.60  0. 1.0000     0.      0.00 
  -7   7  12      0.00    4.01  0. 1.0000     0.      0.00 
  -6   7  12    381.45    7.91  0. 1.0000     0.      0.00 
  -5   7  12    410.01   28.24  0. 1.0000     0.      0.00 
  -4   7  12     20.54   12.72  0. 1.0000     0.      0.00 
  -3   7  12      1.46    3.42  0. 1.0000     0.      0.00 
  -2   7  12      8.19    2.80  0. 1.0000     0.      0.00 
  -1   7  12      0.00    5.08  0. 1.0000     0.      0.00 
   0   7  12    395.11    5.35  0. 1.0000     0.      0.00 
   1   7  12   1339.41   13.91  0. 1.0000     0.      0.00 
   2   7  12    425.33    5.86  0. 1.0000     0.      0.00 
   3   7  12     29.16    2.94  0. 1.0000     0.      0.00 
   4   7  12     29.83    3.66  0. 1.0000     0.      0.00 
   5   7  12    300.33   16.15  0. 1.0000     0.      0.00 
   8   7  12    126.68   16.55  0. 1.0000     0.      0.00 
   9   7  12    104.31   11.75  0. 1.0000     0.      0.00 
 -12   8  12      9.07    6.08  0. 1.0000     0.      0.00 
 -11   8  12     26.08    7.02  0. 1.0000     0.      0.00 
 -10   8  12    278.28   10.88  0. 1.0000     0.      0.00 
  -9   8  12    325.23   26.68  0. 1.0000     0.      0.00 
  -8   8  12     48.56   20.33  0. 1.0000     0.      0.00 
  -7   8  12      7.57   17.12  0. 1.0000     0.      0.00 
  -6   8  12    106.90    6.46  0. 1.0000     0.      0.00 
  -5   8  12     60.67    4.39  0. 1.0000     0.      0.00 
  -4   8  12    100.75    4.01  0. 1.0000     0.      0.00 
  -3   8  12   1731.61   18.90  0. 1.0000     0.      0.00 
  -2   8  12    297.42    4.15  0. 1.0000     0.      0.00 
  -1   8  12     17.75    2.59  0. 1.0000     0.      0.00 
   0   8  12     12.99    2.77  0. 1.0000     0.      0.00 
   1   8  12    865.39   11.39  0. 1.0000     0.      0.00 
   2   8  12      6.48    9.09  0. 1.0000     0.      0.00 
   5   8  12    230.24   17.91  0. 1.0000     0.      0.00 
   6   8  12      0.00    8.52  0. 1.0000     0.      0.00 
   7   8  12    120.18    8.28  0. 1.0000     0.      0.00 
   8   8  12      8.17    8.64  0. 1.0000     0.      0.00 
 -12   9  12     40.66   17.03  0. 1.0000     0.      0.00 
 -11   9  12     43.81   26.86  0. 1.0000     0.      0.00 
 -10   9  12     33.76   28.99  0. 1.0000     0.      0.00 
  -9   9  12    116.79   11.61  0. 1.0000     0.      0.00 
  -8   9  12      0.00    9.93  0. 1.0000     0.      0.00 
  -7   9  12    153.73    5.19  0. 1.0000     0.      0.00 
  -6   9  12      5.93    3.19  0. 1.0000     0.      0.00 
  -5   9  12     30.09    2.42  0. 1.0000     0.      0.00 
  -4   9  12      3.85    3.13  0. 1.0000     0.      0.00 
  -3   9  12   1914.68   21.61  0. 1.0000     0.      0.00 
  -2   9  12     34.58    3.93  0. 1.0000     0.      0.00 
  -1   9  12     19.74    8.38  0. 1.0000     0.      0.00 
   0   9  12      0.00   35.19  0. 1.0000     0.      0.00 
   2   9  12     30.21   10.68  0. 1.0000     0.      0.00 
   3   9  12    515.79   12.78  0. 1.0000     0.      0.00 
   4   9  12     64.33    5.99  0. 1.0000     0.      0.00 
   5   9  12    136.69    6.95  0. 1.0000     0.      0.00 
   6   9  12      4.60    5.94  0. 1.0000     0.      0.00 
   7   9  12      1.88    8.40  0. 1.0000     0.      0.00 
 -11  10  12     20.47    9.83  0. 1.0000     0.      0.00 
 -10  10  12     47.92    8.83  0. 1.0000     0.      0.00 
  -9  10  12      3.32    5.12  0. 1.0000     0.      0.00 
  -8  10  12     58.25    4.01  0. 1.0000     0.      0.00 
  -7  10  12    745.82   14.54  0. 1.0000     0.      0.00 
  -6  10  12     21.25    5.92  0. 1.0000     0.      0.00 
  -5  10  12      0.00    6.09  0. 1.0000     0.      0.00 
  -4  10  12     17.04   11.78  0. 1.0000     0.      0.00 
  -3  10  12      0.00   39.17  0. 1.0000     0.      0.00 
  -2  10  12    312.39   33.35  0. 1.0000     0.      0.00 
  -1  10  12    130.31   10.67  0. 1.0000     0.      0.00 
   0  10  12    114.40    5.86  0. 1.0000     0.      0.00 
   1  10  12     44.87    5.09  0. 1.0000     0.      0.00 
   2  10  12      8.77    4.68  0. 1.0000     0.      0.00 
   3  10  12     27.96    5.16  0. 1.0000     0.      0.00 
   4  10  12    539.53   11.41  0. 1.0000     0.      0.00 
   5  10  12     10.71    8.35  0. 1.0000     0.      0.00 
   6  10  12      8.20   15.48  0. 1.0000     0.      0.00 
 -10  11  12     17.53    6.89  0. 1.0000     0.      0.00 
  -9  11  12     25.76    9.22  0. 1.0000     0.      0.00 
  -8  11  12    115.32   13.46  0. 1.0000     0.      0.00 
  -7  11  12     60.92   26.80  0. 1.0000     0.      0.00 
  -6  11  12     96.77   58.60  0. 1.0000     0.      0.00 
  -4  11  12     22.43   12.19  0. 1.0000     0.      0.00 
  -3  11  12     15.31    9.71  0. 1.0000     0.      0.00 
  -2  11  12    121.78    6.95  0. 1.0000     0.      0.00 
  -1  11  12    131.94    8.07  0. 1.0000     0.      0.00 
   0  11  12    817.66   12.83  0. 1.0000     0.      0.00 
   1  11  12      8.59    4.94  0. 1.0000     0.      0.00 
   2  11  12     27.92    7.44  0. 1.0000     0.      0.00 
   3  11  12     27.77    9.91  0. 1.0000     0.      0.00 
   4  11  12    222.76   24.86  0. 1.0000     0.      0.00 
  -8  12  12     36.11   26.25  0. 1.0000     0.      0.00 
  -7  12  12     95.45   19.59  0. 1.0000     0.      0.00 
  -6  12  12    127.16   11.65  0. 1.0000     0.      0.00 
  -5  12  12      0.00    7.94  0. 1.0000     0.      0.00 
  -4  12  12    318.94    6.69  0. 1.0000     0.      0.00 
  -3  12  12      0.00    3.63  0. 1.0000     0.      0.00 
  -2  12  12      0.00    5.11  0. 1.0000     0.      0.00 
  -1  12  12     65.67    6.79  0. 1.0000     0.      0.00 
   0  12  12    364.75   15.61  0. 1.0000     0.      0.00 
   1  12  12      0.00   46.89  0. 1.0000     0.      0.00 
  -8  13  12     12.13   24.67  0. 1.0000     0.      0.00 
  -7  13  12     28.65    6.89  0. 1.0000     0.      0.00 
  -6  13  12     69.22    5.96  0. 1.0000     0.      0.00 
  -5  13  12    119.61    6.50  0. 1.0000     0.      0.00 
  -4  13  12    254.28    9.97  0. 1.0000     0.      0.00 
  -3  13  12      7.07   17.84  0. 1.0000     0.      0.00 
  -2  13  12      6.73   30.59  0. 1.0000     0.      0.00 
   1  13  12     15.92   17.42  0. 1.0000     0.      0.00 
   1 -14  13     42.67    9.59  0. 1.0000     0.      0.00 
   2 -14  13     10.76   12.29  0. 1.0000     0.      0.00 
   3 -14  13     33.87   25.95  0. 1.0000     0.      0.00 
   4 -14  13      0.00   61.64  0. 1.0000     0.      0.00 
   5 -14  13      9.77   15.06  0. 1.0000     0.      0.00 
   6 -14  13      4.39   11.13  0. 1.0000     0.      0.00 
  -2 -13  13     23.09   10.99  0. 1.0000     0.      0.00 
  -1 -13  13      7.58   12.72  0. 1.0000     0.      0.00 
   0 -13  13      0.00   38.31  0. 1.0000     0.      0.00 
   1 -13  13    243.12   48.97  0. 1.0000     0.      0.00 
   2 -13  13     26.35   13.59  0. 1.0000     0.      0.00 
   3 -13  13    154.57    8.73  0. 1.0000     0.      0.00 
   4 -13  13     11.23    6.05  0. 1.0000     0.      0.00 
   5 -13  13      6.16    5.30  0. 1.0000     0.      0.00 
   6 -13  13      0.00    4.89  0. 1.0000     0.      0.00 
   7 -13  13     11.51    6.74  0. 1.0000     0.      0.00 
   8 -13  13     10.71   10.14  0. 1.0000     0.      0.00 
  -4 -12  13     34.37   14.55  0. 1.0000     0.      0.00 
  -3 -12  13    103.92   28.79  0. 1.0000     0.      0.00 
  -2 -12  13      0.00   70.46  0. 1.0000     0.      0.00 
  -1 -12  13      5.83   13.13  0. 1.0000     0.      0.00 
   0 -12  13      0.00    7.01  0. 1.0000     0.      0.00 
   1 -12  13      0.00    5.68  0. 1.0000     0.      0.00 
   2 -12  13     67.06    5.16  0. 1.0000     0.      0.00 
   3 -12  13     68.69    4.14  0. 1.0000     0.      0.00 
   4 -12  13    178.51    5.44  0. 1.0000     0.      0.00 
   5 -12  13     18.53    5.68  0. 1.0000     0.      0.00 
   6 -12  13     17.67    9.14  0. 1.0000     0.      0.00 
   7 -12  13     13.12   13.87  0. 1.0000     0.      0.00 
   8 -12  13      0.00   19.04  0. 1.0000     0.      0.00 
   9 -12  13     20.16   33.88  0. 1.0000     0.      0.00 
  10 -12  13     29.19    7.43  0. 1.0000     0.      0.00 
  -5 -11  13      0.00   79.09  0. 1.0000     0.      0.00 
  -4 -11  13      6.21   16.39  0. 1.0000     0.      0.00 
  -3 -11  13     63.40    8.57  0. 1.0000     0.      0.00 
  -2 -11  13     61.63    6.14  0. 1.0000     0.      0.00 
  -1 -11  13     23.15    4.73  0. 1.0000     0.      0.00 
   0 -11  13     21.68    4.40  0. 1.0000     0.      0.00 
   1 -11  13    102.11    4.75  0. 1.0000     0.      0.00 
   2 -11  13     38.82    5.18  0. 1.0000     0.      0.00 
   3 -11  13     54.61    6.93  0. 1.0000     0.      0.00 
   4 -11  13    301.74   13.34  0. 1.0000     0.      0.00 
   5 -11  13     21.64   23.31  0. 1.0000     0.      0.00 
   6 -11  13    140.08   30.82  0. 1.0000     0.      0.00 
   7 -11  13     10.49   14.27  0. 1.0000     0.      0.00 
   8 -11  13      0.00    7.66  0. 1.0000     0.      0.00 
   9 -11  13      8.15    6.87  0. 1.0000     0.      0.00 
  10 -11  13      2.81    5.77  0. 1.0000     0.      0.00 
  11 -11  13      0.00    7.85  0. 1.0000     0.      0.00 
  -7 -10  13      4.44   28.37  0. 1.0000     0.      0.00 
  -6 -10  13     13.16    9.68  0. 1.0000     0.      0.00 
  -5 -10  13     15.17    7.44  0. 1.0000     0.      0.00 
  -4 -10  13     29.80    6.61  0. 1.0000     0.      0.00 
  -3 -10  13      6.97    3.63  0. 1.0000     0.      0.00 
  -2 -10  13    520.57    8.52  0. 1.0000     0.      0.00 
  -1 -10  13      3.36    3.96  0. 1.0000     0.      0.00 
   0 -10  13    413.68    7.03  0. 1.0000     0.      0.00 
   1 -10  13     53.07    6.15  0. 1.0000     0.      0.00 
   2 -10  13      2.99   11.24  0. 1.0000     0.      0.00 
   3 -10  13      0.00   18.56  0. 1.0000     0.      0.00 
   4 -10  13      0.00    6.29  0. 1.0000     0.      0.00 
   5 -10  13     12.65    4.38  0. 1.0000     0.      0.00 
   6 -10  13    204.13    6.38  0. 1.0000     0.      0.00 
   7 -10  13    124.21    8.76  0. 1.0000     0.      0.00 
   8 -10  13      0.00    4.54  0. 1.0000     0.      0.00 
   9 -10  13     25.47    5.81  0. 1.0000     0.      0.00 
  10 -10  13     10.29    7.51  0. 1.0000     0.      0.00 
  11 -10  13     10.60   10.94  0. 1.0000     0.      0.00 
  -8  -9  13     80.19   17.88  0. 1.0000     0.      0.00 
  -7  -9  13      4.62    7.90  0. 1.0000     0.      0.00 
  -6  -9  13     68.44    6.28  0. 1.0000     0.      0.00 
  -5  -9  13     16.62    5.75  0. 1.0000     0.      0.00 
  -4  -9  13     19.99    7.29  0. 1.0000     0.      0.00 
  -3  -9  13     57.87    4.51  0. 1.0000     0.      0.00 
  -2  -9  13      0.00    5.69  0. 1.0000     0.      0.00 
  -1  -9  13      0.00   12.24  0. 1.0000     0.      0.00 
   0  -9  13    567.37   29.07  0. 1.0000     0.      0.00 
   1  -9  13     11.77    4.22  0. 1.0000     0.      0.00 
   2  -9  13    254.05    6.96  0. 1.0000     0.      0.00 
   3  -9  13      0.00    3.70  0. 1.0000     0.      0.00 
   4  -9  13    156.23    4.30  0. 1.0000     0.      0.00 
   5  -9  13     78.72    2.80  0. 1.0000     0.      0.00 
   6  -9  13    109.97    3.95  0. 1.0000     0.      0.00 
   7  -9  13    388.13    6.78  0. 1.0000     0.      0.00 
   8  -9  13      9.25    7.93  0. 1.0000     0.      0.00 
   9  -9  13    141.84   13.50  0. 1.0000     0.      0.00 
  10  -9  13      0.00   16.08  0. 1.0000     0.      0.00 
  11  -9  13      0.00   35.33  0. 1.0000     0.      0.00 
  12  -9  13     19.03   21.41  0. 1.0000     0.      0.00 
  -9  -8  13     40.41   34.23  0. 1.0000     0.      0.00 
  -8  -8  13     17.09    6.92  0. 1.0000     0.      0.00 
  -7  -8  13     23.54    7.71  0. 1.0000     0.      0.00 
  -6  -8  13     34.41    8.06  0. 1.0000     0.      0.00 
  -5  -8  13      6.09    7.92  0. 1.0000     0.      0.00 
  -4  -8  13     20.76   30.02  0. 1.0000     0.      0.00 
  -3  -8  13     99.91   53.85  0. 1.0000     0.      0.00 
  -2  -8  13     93.56    5.91  0. 1.0000     0.      0.00 
  -1  -8  13      2.06    3.16  0. 1.0000     0.      0.00 
   0  -8  13     18.83    2.92  0. 1.0000     0.      0.00 
   1  -8  13    560.12    6.57  0. 1.0000     0.      0.00 
   2  -8  13    133.12    5.00  0. 1.0000     0.      0.00 
   3  -8  13    650.98    8.50  0. 1.0000     0.      0.00 
   4  -8  13     41.81    3.19  0. 1.0000     0.      0.00 
   5  -8  13    128.46    3.99  0. 1.0000     0.      0.00 
   6  -8  13     71.76    7.13  0. 1.0000     0.      0.00 
   7  -8  13     65.23   11.06  0. 1.0000     0.      0.00 
   8  -8  13    128.38   19.34  0. 1.0000     0.      0.00 
   9  -8  13    358.18   32.42  0. 1.0000     0.      0.00 
  10  -8  13    121.53    9.45  0. 1.0000     0.      0.00 
  11  -8  13     18.10    7.15  0. 1.0000     0.      0.00 
  12  -8  13     20.71    6.62  0. 1.0000     0.      0.00 
  -9  -7  13     21.19    9.95  0. 1.0000     0.      0.00 
  -8  -7  13     50.66   14.23  0. 1.0000     0.      0.00 
  -7  -7  13      7.41   30.78  0. 1.0000     0.      0.00 
  -6  -7  13     33.36   24.56  0. 1.0000     0.      0.00 
  -5  -7  13    256.63    7.60  0. 1.0000     0.      0.00 
  -4  -7  13     10.59    3.63  0. 1.0000     0.      0.00 
  -3  -7  13    151.04    3.58  0. 1.0000     0.      0.00 
  -2  -7  13     51.19    7.17  0. 1.0000     0.      0.00 
  -1  -7  13     25.45    4.88  0. 1.0000     0.      0.00 
   0  -7  13    273.83    4.07  0. 1.0000     0.      0.00 
   1  -7  13    191.87    3.55  0. 1.0000     0.      0.00 
   2  -7  13     51.64    3.30  0. 1.0000     0.      0.00 
   3  -7  13    847.70   12.28  0. 1.0000     0.      0.00 
   4  -7  13      3.51    8.13  0. 1.0000     0.      0.00 
   5  -7  13    661.79   30.92  0. 1.0000     0.      0.00 
   6  -7  13      0.94    4.84  0. 1.0000     0.      0.00 
   7  -7  13    130.70    4.07  0. 1.0000     0.      0.00 
   8  -7  13      6.30    3.65  0. 1.0000     0.      0.00 
   9  -7  13      2.70    3.56  0. 1.0000     0.      0.00 
  10  -7  13     88.50    5.30  0. 1.0000     0.      0.00 
  11  -7  13     11.01    5.47  0. 1.0000     0.      0.00 
  12  -7  13     32.22    8.28  0. 1.0000     0.      0.00 
  13  -7  13     19.28   31.68  0. 1.0000     0.      0.00 
 -10  -6  13    149.90   42.51  0. 1.0000     0.      0.00 
  -9  -6  13     11.87   32.28  0. 1.0000     0.      0.00 
  -8  -6  13     94.20   10.73  0. 1.0000     0.      0.00 
  -7  -6  13     36.30    5.94  0. 1.0000     0.      0.00 
  -6  -6  13     37.22    4.06  0. 1.0000     0.      0.00 
  -5  -6  13     57.44    5.07  0. 1.0000     0.      0.00 
  -4  -6  13     21.96    2.03  0. 1.0000     0.      0.00 
  -3  -6  13    512.25    5.95  0. 1.0000     0.      0.00 
  -2  -6  13     72.27    2.96  0. 1.0000     0.      0.00 
  -1  -6  13     86.01    6.14  0. 1.0000     0.      0.00 
   0  -6  13      5.95    2.85  0. 1.0000     0.      0.00 
   1  -6  13      9.94    4.31  0. 1.0000     0.      0.00 
   2  -6  13     34.95    5.25  0. 1.0000     0.      0.00 
   3  -6  13      4.74    3.09  0. 1.0000     0.      0.00 
   4  -6  13    163.63    3.62  0. 1.0000     0.      0.00 
   5  -6  13    713.50    8.55  0. 1.0000     0.      0.00 
   6  -6  13    343.47   12.13  0. 1.0000     0.      0.00 
   7  -6  13      6.04    1.96  0. 1.0000     0.      0.00 
   8  -6  13    122.13    3.46  0. 1.0000     0.      0.00 
   9  -6  13    160.19    4.57  0. 1.0000     0.      0.00 
  10  -6  13     47.93   15.04  0. 1.0000     0.      0.00 
  11  -6  13    221.27   12.04  0. 1.0000     0.      0.00 
  12  -6  13    121.59   20.06  0. 1.0000     0.      0.00 
  13  -6  13     35.11   58.80  0. 1.0000     0.      0.00 
 -11  -5  13     14.81   18.58  0. 1.0000     0.      0.00 
 -10  -5  13     22.57    8.60  0. 1.0000     0.      0.00 
  -9  -5  13    136.12    7.14  0. 1.0000     0.      0.00 
  -8  -5  13      9.92    4.42  0. 1.0000     0.      0.00 
  -7  -5  13      6.83    2.85  0. 1.0000     0.      0.00 
  -6  -5  13      9.18    2.90  0. 1.0000     0.      0.00 
  -5  -5  13    445.70   10.61  0. 1.0000     0.      0.00 
  -4  -5  13     58.74    2.58  0. 1.0000     0.      0.00 
  -3  -5  13    117.48    3.05  0. 1.0000     0.      0.00 
  -2  -5  13    506.47    9.97  0. 1.0000     0.      0.00 
  -1  -5  13    109.30    4.93  0. 1.0000     0.      0.00 
   0  -5  13    128.14    2.93  0. 1.0000     0.      0.00 
   1  -5  13     85.56    2.55  0. 1.0000     0.      0.00 
   2  -5  13      5.89    7.41  0. 1.0000     0.      0.00 
   3  -5  13    407.96    5.76  0. 1.0000     0.      0.00 
   4  -5  13    110.93    2.05  0. 1.0000     0.      0.00 
   5  -5  13     18.39    2.70  0. 1.0000     0.      0.00 
   6  -5  13    640.88    9.99  0. 1.0000     0.      0.00 
   7  -5  13      4.40    2.96  0. 1.0000     0.      0.00 
   8  -5  13    530.87   11.20  0. 1.0000     0.      0.00 
   9  -5  13     29.58   15.02  0. 1.0000     0.      0.00 
  11  -5  13     21.39   12.33  0. 1.0000     0.      0.00 
  12  -5  13     40.15   11.75  0. 1.0000     0.      0.00 
  13  -5  13     16.36    9.84  0. 1.0000     0.      0.00 
 -11  -4  13     43.20    6.54  0. 1.0000     0.      0.00 
 -10  -4  13      9.49    4.96  0. 1.0000     0.      0.00 
  -9  -4  13     20.92    5.86  0. 1.0000     0.      0.00 
  -8  -4  13    269.49    5.60  0. 1.0000     0.      0.00 
  -7  -4  13     15.25    3.91  0. 1.0000     0.      0.00 
  -6  -4  13     64.06    4.43  0. 1.0000     0.      0.00 
  -5  -4  13    269.06   10.02  0. 1.0000     0.      0.00 
  -4  -4  13     36.47    6.07  0. 1.0000     0.      0.00 
  -3  -4  13    604.68    6.97  0. 1.0000     0.      0.00 
  -2  -4  13    105.48    2.92  0. 1.0000     0.      0.00 
  -1  -4  13     68.67    1.90  0. 1.0000     0.      0.00 
   0  -4  13   1332.00   11.62  0. 1.0000     0.      0.00 
   1  -4  13    471.44   13.80  0. 1.0000     0.      0.00 
   2  -4  13      5.78    4.85  0. 1.0000     0.      0.00 
   3  -4  13      3.08    1.75  0. 1.0000     0.      0.00 
   4  -4  13     11.23    2.21  0. 1.0000     0.      0.00 
   5  -4  13      8.36    2.41  0. 1.0000     0.      0.00 
   6  -4  13      9.17    5.92  0. 1.0000     0.      0.00 
   7  -4  13      0.00    9.91  0. 1.0000     0.      0.00 
   8  -4  13   1040.53   19.31  0. 1.0000     0.      0.00 
   9  -4  13    166.01    4.86  0. 1.0000     0.      0.00 
  10  -4  13      4.91    5.65  0. 1.0000     0.      0.00 
  11  -4  13     43.99    4.84  0. 1.0000     0.      0.00 
  12  -4  13     13.04    4.34  0. 1.0000     0.      0.00 
  13  -4  13     35.28    6.93  0. 1.0000     0.      0.00 
 -12  -3  13      0.00    8.89  0. 1.0000     0.      0.00 
 -11  -3  13     65.44    6.96  0. 1.0000     0.      0.00 
 -10  -3  13     25.42    7.98  0. 1.0000     0.      0.00 
  -9  -3  13    218.49   11.82  0. 1.0000     0.      0.00 
  -8  -3  13     46.56   14.08  0. 1.0000     0.      0.00 
  -7  -3  13    216.06   12.10  0. 1.0000     0.      0.00 
  -6  -3  13    658.04    9.82  0. 1.0000     0.      0.00 
  -5  -3  13     88.57    2.79  0. 1.0000     0.      0.00 
  -4  -3  13     91.87    2.25  0. 1.0000     0.      0.00 
  -3  -3  13    131.83    8.65  0. 1.0000     0.      0.00 
  -2  -3  13    902.69    8.87  0. 1.0000     0.      0.00 
  -1  -3  13     11.13    1.22  0. 1.0000     0.      0.00 
   0  -3  13      1.96    1.34  0. 1.0000     0.      0.00 
   1  -3  13    523.06    8.47  0. 1.0000     0.      0.00 
   2  -3  13    169.59    2.70  0. 1.0000     0.      0.00 
   3  -3  13    488.23    9.29  0. 1.0000     0.      0.00 
   4  -3  13    229.76    8.46  0. 1.0000     0.      0.00 
   5  -3  13      6.98    2.46  0. 1.0000     0.      0.00 
   6  -3  13    388.48    5.52  0. 1.0000     0.      0.00 
   7  -3  13     81.22    3.09  0. 1.0000     0.      0.00 
   8  -3  13     52.95    3.15  0. 1.0000     0.      0.00 
   9  -3  13     93.96    3.42  0. 1.0000     0.      0.00 
  10  -3  13      7.53    4.52  0. 1.0000     0.      0.00 
  11  -3  13     94.92    6.51  0. 1.0000     0.      0.00 
  12  -3  13      3.73    9.85  0. 1.0000     0.      0.00 
  13  -3  13      0.00   14.34  0. 1.0000     0.      0.00 
 -12  -2  13      9.90   12.96  0. 1.0000     0.      0.00 
 -11  -2  13     68.41   25.34  0. 1.0000     0.      0.00 
 -10  -2  13      0.00   24.90  0. 1.0000     0.      0.00 
  -9  -2  13    252.16    9.52  0. 1.0000     0.      0.00 
  -8  -2  13    100.85    4.30  0. 1.0000     0.      0.00 
  -7  -2  13     76.41    4.88  0. 1.0000     0.      0.00 
  -6  -2  13      2.86    2.17  0. 1.0000     0.      0.00 
  -5  -2  13    145.41    3.01  0. 1.0000     0.      0.00 
  -4  -2  13    106.55    2.27  0. 1.0000     0.      0.00 
  -3  -2  13    462.48   15.92  0. 1.0000     0.      0.00 
  -2  -2  13    574.69    6.79  0. 1.0000     0.      0.00 
  -1  -2  13     99.56    2.84  0. 1.0000     0.      0.00 
   0  -2  13   1545.81   31.69  0. 1.0000     0.      0.00 
   1  -2  13    365.60   16.25  0. 1.0000     0.      0.00 
   2  -2  13    127.33    2.20  0. 1.0000     0.      0.00 
   3  -2  13   1168.90   12.77  0. 1.0000     0.      0.00 
   4  -2  13   1115.57   11.56  0. 1.0000     0.      0.00 
   5  -2  13     20.97    1.61  0. 1.0000     0.      0.00 
   6  -2  13      5.01    1.74  0. 1.0000     0.      0.00 
   7  -2  13      0.00    2.35  0. 1.0000     0.      0.00 
   8  -2  13     40.81    3.00  0. 1.0000     0.      0.00 
   9  -2  13      6.96    5.31  0. 1.0000     0.      0.00 
  10  -2  13     50.25   10.95  0. 1.0000     0.      0.00 
  11  -2  13    333.98   25.40  0. 1.0000     0.      0.00 
  12  -2  13     83.51   26.39  0. 1.0000     0.      0.00 
  13  -2  13     18.04   19.50  0. 1.0000     0.      0.00 
 -12  -1  13     36.78   12.97  0. 1.0000     0.      0.00 
 -11  -1  13      0.00    7.55  0. 1.0000     0.      0.00 
 -10  -1  13      9.93    6.91  0. 1.0000     0.      0.00 
  -9  -1  13     24.09    3.41  0. 1.0000     0.      0.00 
  -8  -1  13     42.87    2.94  0. 1.0000     0.      0.00 
  -7  -1  13    114.33    6.16  0. 1.0000     0.      0.00 
  -6  -1  13    556.68    8.53  0. 1.0000     0.      0.00 
  -5  -1  13    376.93    5.17  0. 1.0000     0.      0.00 
  -4  -1  13    211.53    3.92  0. 1.0000     0.      0.00 
  -3  -1  13   1434.17   21.19  0. 1.0000     0.      0.00 
  -2  -1  13    107.85    6.38  0. 1.0000     0.      0.00 
  -1  -1  13    521.51    5.29  0. 1.0000     0.      0.00 
   0  -1  13     89.07    3.47  0. 1.0000     0.      0.00 
   1  -1  13    281.10    3.26  0. 1.0000     0.      0.00 
   2  -1  13    414.16    4.67  0. 1.0000     0.      0.00 
   3  -1  13    170.69    5.12  0. 1.0000     0.      0.00 
   4  -1  13    226.32    3.68  0. 1.0000     0.      0.00 
   5  -1  13     26.03    1.93  0. 1.0000     0.      0.00 
   6  -1  13    268.89    4.33  0. 1.0000     0.      0.00 
   7  -1  13     68.99    3.62  0. 1.0000     0.      0.00 
   8  -1  13    125.47   12.48  0. 1.0000     0.      0.00 
   9  -1  13    326.95   45.90  0. 1.0000     0.      0.00 
  10  -1  13      5.64   13.45  0. 1.0000     0.      0.00 
  11  -1  13    136.31   11.56  0. 1.0000     0.      0.00 
  12  -1  13     17.30    6.97  0. 1.0000     0.      0.00 
  13  -1  13     12.19    5.99  0. 1.0000     0.      0.00 
 -13   0  13      5.40   12.71  0. 1.0000     0.      0.00 
 -12   0  13     64.03    6.48  0. 1.0000     0.      0.00 
 -11   0  13     23.95    4.71  0. 1.0000     0.      0.00 
 -10   0  13     10.66    5.69  0. 1.0000     0.      0.00 
  -9   0  13    176.12    4.74  0. 1.0000     0.      0.00 
  -8   0  13     43.29    4.21  0. 1.0000     0.      0.00 
  -7   0  13      5.37    3.44  0. 1.0000     0.      0.00 
  -6   0  13    478.30   19.39  0. 1.0000     0.      0.00 
  -5   0  13     92.43    6.24  0. 1.0000     0.      0.00 
  -4   0  13    447.52    5.74  0. 1.0000     0.      0.00 
  -3   0  13    136.09    3.84  0. 1.0000     0.      0.00 
  -2   0  13      1.28    1.32  0. 1.0000     0.      0.00 
  -1   0  13   1491.04   15.65  0. 1.0000     0.      0.00 
   0   0  13    220.88    2.91  0. 1.0000     0.      0.00 
   1   0  13    720.72   10.22  0. 1.0000     0.      0.00 
   2   0  13     94.01    1.73  0. 1.0000     0.      0.00 
   3   0  13    723.32    7.22  0. 1.0000     0.      0.00 
   4   0  13    121.90    3.13  0. 1.0000     0.      0.00 
   5   0  13    321.76   13.93  0. 1.0000     0.      0.00 
   6   0  13    509.95   17.09  0. 1.0000     0.      0.00 
   7   0  13    752.91   12.66  0. 1.0000     0.      0.00 
   8   0  13     94.83    3.73  0. 1.0000     0.      0.00 
   9   0  13      0.00    3.87  0. 1.0000     0.      0.00 
  10   0  13     49.35    6.60  0. 1.0000     0.      0.00 
  11   0  13     14.39    4.21  0. 1.0000     0.      0.00 
  12   0  13      0.00    7.07  0. 1.0000     0.      0.00 
 -13   1  13     14.92    6.98  0. 1.0000     0.      0.00 
 -12   1  13      3.11    6.36  0. 1.0000     0.      0.00 
 -11   1  13     92.79    7.06  0. 1.0000     0.      0.00 
 -10   1  13     12.59    8.43  0. 1.0000     0.      0.00 
  -9   1  13     13.37    7.16  0. 1.0000     0.      0.00 
  -8   1  13      0.00   10.20  0. 1.0000     0.      0.00 
  -7   1  13    125.02    4.33  0. 1.0000     0.      0.00 
  -6   1  13     83.26    3.22  0. 1.0000     0.      0.00 
  -5   1  13     15.36    1.85  0. 1.0000     0.      0.00 
  -4   1  13    343.00    4.63  0. 1.0000     0.      0.00 
  -3   1  13   1281.73   12.04  0. 1.0000     0.      0.00 
  -2   1  13    208.89    3.47  0. 1.0000     0.      0.00 
  -1   1  13     62.06    2.11  0. 1.0000     0.      0.00 
   0   1  13    811.83    7.95  0. 1.0000     0.      0.00 
   1   1  13     16.73    2.38  0. 1.0000     0.      0.00 
   2   1  13    768.45   46.31  0. 1.0000     0.      0.00 
   3   1  13     63.61    6.95  0. 1.0000     0.      0.00 
   4   1  13      0.00    2.12  0. 1.0000     0.      0.00 
   5   1  13    440.31    8.26  0. 1.0000     0.      0.00 
   6   1  13    482.18    6.27  0. 1.0000     0.      0.00 
   7   1  13    196.99    3.80  0. 1.0000     0.      0.00 
   8   1  13      6.45    2.26  0. 1.0000     0.      0.00 
   9   1  13    117.82    4.27  0. 1.0000     0.      0.00 
  10   1  13     24.31    6.90  0. 1.0000     0.      0.00 
  11   1  13     15.35   11.44  0. 1.0000     0.      0.00 
  12   1  13     54.97   14.98  0. 1.0000     0.      0.00 
 -13   2  13      1.24   12.50  0. 1.0000     0.      0.00 
 -12   2  13     17.56   19.55  0. 1.0000     0.      0.00 
 -11   2  13    126.46   14.11  0. 1.0000     0.      0.00 
 -10   2  13      0.00    6.70  0. 1.0000     0.      0.00 
  -9   2  13    455.27    7.52  0. 1.0000     0.      0.00 
  -8   2  13     22.23    3.02  0. 1.0000     0.      0.00 
  -7   2  13     54.35    2.39  0. 1.0000     0.      0.00 
  -6   2  13    169.39    2.80  0. 1.0000     0.      0.00 
  -5   2  13     51.11    1.81  0. 1.0000     0.      0.00 
  -4   2  13    189.93    5.44  0. 1.0000     0.      0.00 
  -3   2  13    475.88    8.41  0. 1.0000     0.      0.00 
  -2   2  13     59.85    1.99  0. 1.0000     0.      0.00 
  -1   2  13    774.50   22.00  0. 1.0000     0.      0.00 
   0   2  13    256.50   19.00  0. 1.0000     0.      0.00 
   1   2  13     75.05    4.53  0. 1.0000     0.      0.00 
   2   2  13   1997.53   20.97  0. 1.0000     0.      0.00 
   3   2  13    305.46    3.72  0. 1.0000     0.      0.00 
   4   2  13    108.13    2.69  0. 1.0000     0.      0.00 
   5   2  13      3.22    1.29  0. 1.0000     0.      0.00 
   6   2  13     71.35    2.61  0. 1.0000     0.      0.00 
   7   2  13      8.19    4.15  0. 1.0000     0.      0.00 
   8   2  13    125.08    4.87  0. 1.0000     0.      0.00 
   9   2  13     21.87   12.49  0. 1.0000     0.      0.00 
  10   2  13     91.42   30.47  0. 1.0000     0.      0.00 
  11   2  13    104.00   50.32  0. 1.0000     0.      0.00 
  12   2  13      0.00   23.40  0. 1.0000     0.      0.00 
 -13   3  13     73.83   15.94  0. 1.0000     0.      0.00 
 -12   3  13     39.06    8.78  0. 1.0000     0.      0.00 
 -11   3  13     60.14    6.09  0. 1.0000     0.      0.00 
 -10   3  13     20.26    4.50  0. 1.0000     0.      0.00 
  -9   3  13    129.42    3.74  0. 1.0000     0.      0.00 
  -8   3  13    243.61    4.02  0. 1.0000     0.      0.00 
  -7   3  13    119.74    3.28  0. 1.0000     0.      0.00 
  -6   3  13     78.57    3.53  0. 1.0000     0.      0.00 
  -5   3  13      8.46    2.18  0. 1.0000     0.      0.00 
  -4   3  13     90.81    9.44  0. 1.0000     0.      0.00 
  -3   3  13      0.00    5.90  0. 1.0000     0.      0.00 
  -2   3  13      5.33    6.71  0. 1.0000     0.      0.00 
  -1   3  13     67.12    2.77  0. 1.0000     0.      0.00 
   0   3  13    714.99   10.86  0. 1.0000     0.      0.00 
   1   3  13     20.27    1.37  0. 1.0000     0.      0.00 
   2   3  13    380.81    3.97  0. 1.0000     0.      0.00 
   3   3  13     91.65    2.27  0. 1.0000     0.      0.00 
   4   3  13      7.82    1.80  0. 1.0000     0.      0.00 
   5   3  13    257.85    4.12  0. 1.0000     0.      0.00 
   6   3  13     28.92    4.33  0. 1.0000     0.      0.00 
   7   3  13     38.64   19.53  0. 1.0000     0.      0.00 
   9   3  13    120.77   13.87  0. 1.0000     0.      0.00 
  10   3  13    102.84    9.77  0. 1.0000     0.      0.00 
  11   3  13     11.52    7.37  0. 1.0000     0.      0.00 
 -13   4  13     38.52    8.17  0. 1.0000     0.      0.00 
 -12   4  13     22.59    5.36  0. 1.0000     0.      0.00 
 -11   4  13      7.59    4.75  0. 1.0000     0.      0.00 
 -10   4  13      9.59    5.26  0. 1.0000     0.      0.00 
  -9   4  13      4.76    4.19  0. 1.0000     0.      0.00 
  -8   4  13    591.27   18.86  0. 1.0000     0.      0.00 
  -7   4  13      3.68    8.94  0. 1.0000     0.      0.00 
  -6   4  13    496.56   41.10  0. 1.0000     0.      0.00 
  -5   4  13      8.03    3.21  0. 1.0000     0.      0.00 
  -4   4  13     63.28    7.18  0. 1.0000     0.      0.00 
  -3   4  13    230.71    4.26  0. 1.0000     0.      0.00 
  -2   4  13    479.58    6.02  0. 1.0000     0.      0.00 
  -1   4  13    101.07    1.89  0. 1.0000     0.      0.00 
   0   4  13    519.12    5.65  0. 1.0000     0.      0.00 
   1   4  13      4.10    1.71  0. 1.0000     0.      0.00 
   2   4  13    532.20    6.48  0. 1.0000     0.      0.00 
   3   4  13      0.00    2.30  0. 1.0000     0.      0.00 
   4   4  13    139.10   20.39  0. 1.0000     0.      0.00 
   5   4  13    760.19  105.95  0. 1.0000     0.      0.00 
   6   4  13    289.51    9.60  0. 1.0000     0.      0.00 
   7   4  13      4.62    4.67  0. 1.0000     0.      0.00 
   8   4  13      6.03    5.15  0. 1.0000     0.      0.00 
   9   4  13     62.09    5.32  0. 1.0000     0.      0.00 
  10   4  13      1.66    5.18  0. 1.0000     0.      0.00 
  11   4  13     12.95    7.60  0. 1.0000     0.      0.00 
 -13   5  13      9.07    8.02  0. 1.0000     0.      0.00 
 -12   5  13    119.18    8.74  0. 1.0000     0.      0.00 
 -11   5  13     67.80   11.42  0. 1.0000     0.      0.00 
 -10   5  13     13.93   29.57  0. 1.0000     0.      0.00 
  -9   5  13     92.61   10.82  0. 1.0000     0.      0.00 
  -8   5  13     69.09    6.49  0. 1.0000     0.      0.00 
  -7   5  13     14.03    3.18  0. 1.0000     0.      0.00 
  -6   5  13    427.56    5.99  0. 1.0000     0.      0.00 
  -5   5  13    161.53    3.67  0. 1.0000     0.      0.00 
  -4   5  13    533.67    5.84  0. 1.0000     0.      0.00 
  -3   5  13     95.20    2.97  0. 1.0000     0.      0.00 
  -2   5  13     20.99    1.99  0. 1.0000     0.      0.00 
  -1   5  13     18.38    2.06  0. 1.0000     0.      0.00 
   0   5  13     18.04    2.37  0. 1.0000     0.      0.00 
   1   5  13     31.44   21.35  0. 1.0000     0.      0.00 
   2   5  13     49.39   63.44  0. 1.0000     0.      0.00 
   3   5  13    172.01    6.87  0. 1.0000     0.      0.00 
   4   5  13     90.33    3.30  0. 1.0000     0.      0.00 
   5   5  13    555.40    8.38  0. 1.0000     0.      0.00 
   6   5  13     51.95    3.52  0. 1.0000     0.      0.00 
   7   5  13      5.03    3.52  0. 1.0000     0.      0.00 
   8   5  13    133.07    6.29  0. 1.0000     0.      0.00 
   9   5  13     20.10    7.43  0. 1.0000     0.      0.00 
  10   5  13      8.88   14.08  0. 1.0000     0.      0.00 
 -13   6  13     18.37   21.50  0. 1.0000     0.      0.00 
 -12   6  13    216.25   23.06  0. 1.0000     0.      0.00 
 -11   6  13      4.40   12.29  0. 1.0000     0.      0.00 
 -10   6  13    323.45   11.77  0. 1.0000     0.      0.00 
  -9   6  13    127.44    4.65  0. 1.0000     0.      0.00 
  -8   6  13     75.35    3.44  0. 1.0000     0.      0.00 
  -7   6  13    128.42    2.83  0. 1.0000     0.      0.00 
  -6   6  13      1.37    2.31  0. 1.0000     0.      0.00 
  -5   6  13    766.91    8.80  0. 1.0000     0.      0.00 
  -4   6  13     49.13    3.35  0. 1.0000     0.      0.00 
  -3   6  13    475.29    6.72  0. 1.0000     0.      0.00 
  -2   6  13      0.00   13.95  0. 1.0000     0.      0.00 
  -1   6  13     12.06   29.37  0. 1.0000     0.      0.00 
   0   6  13    142.76    3.74  0. 1.0000     0.      0.00 
   1   6  13    527.58    7.76  0. 1.0000     0.      0.00 
   2   6  13     26.38    2.48  0. 1.0000     0.      0.00 
   3   6  13    204.34    3.95  0. 1.0000     0.      0.00 
   4   6  13      0.00    2.28  0. 1.0000     0.      0.00 
   5   6  13      3.46    3.28  0. 1.0000     0.      0.00 
   6   6  13     19.17    4.17  0. 1.0000     0.      0.00 
   7   6  13     31.02    9.60  0. 1.0000     0.      0.00 
   8   6  13     23.36   16.57  0. 1.0000     0.      0.00 
   9   6  13     42.93   26.36  0. 1.0000     0.      0.00 
 -12   7  13      9.88    7.95  0. 1.0000     0.      0.00 
 -11   7  13     13.53    6.32  0. 1.0000     0.      0.00 
 -10   7  13     84.30    5.53  0. 1.0000     0.      0.00 
  -9   7  13    186.81    4.79  0. 1.0000     0.      0.00 
  -8   7  13      0.00    3.72  0. 1.0000     0.      0.00 
  -7   7  13     11.82    3.96  0. 1.0000     0.      0.00 
  -6   7  13     13.12    5.44  0. 1.0000     0.      0.00 
  -5   7  13    118.77   20.51  0. 1.0000     0.      0.00 
  -4   7  13     86.50   15.78  0. 1.0000     0.      0.00 
  -3   7  13    338.74    7.86  0. 1.0000     0.      0.00 
  -2   7  13     19.12    2.90  0. 1.0000     0.      0.00 
  -1   7  13    741.60    8.57  0. 1.0000     0.      0.00 
   0   7  13    177.15    7.78  0. 1.0000     0.      0.00 
   1   7  13    225.19    4.63  0. 1.0000     0.      0.00 
   2   7  13      7.15    2.70  0. 1.0000     0.      0.00 
   3   7  13      0.00    3.41  0. 1.0000     0.      0.00 
   4   7  13      0.00    4.09  0. 1.0000     0.      0.00 
   5   7  13      6.99   14.71  0. 1.0000     0.      0.00 
   8   7  13    117.43   18.97  0. 1.0000     0.      0.00 
   9   7  13     31.43   11.84  0. 1.0000     0.      0.00 
 -12   8  13     16.80    6.54  0. 1.0000     0.      0.00 
 -11   8  13     12.16    7.20  0. 1.0000     0.      0.00 
 -10   8  13     45.24   10.36  0. 1.0000     0.      0.00 
  -9   8  13    231.63   40.00  0. 1.0000     0.      0.00 
  -7   8  13    385.09   28.22  0. 1.0000     0.      0.00 
  -6   8  13     68.65    6.64  0. 1.0000     0.      0.00 
  -5   8  13     47.05    3.69  0. 1.0000     0.      0.00 
  -4   8  13    397.95    7.95  0. 1.0000     0.      0.00 
  -3   8  13      2.85    2.94  0. 1.0000     0.      0.00 
  -2   8  13    221.95    3.85  0. 1.0000     0.      0.00 
  -1   8  13    159.30    3.76  0. 1.0000     0.      0.00 
   0   8  13     26.45    4.16  0. 1.0000     0.      0.00 
   1   8  13     92.39    3.86  0. 1.0000     0.      0.00 
   2   8  13     99.46   13.81  0. 1.0000     0.      0.00 
   5   8  13     18.75   15.27  0. 1.0000     0.      0.00 
   6   8  13     75.91    9.29  0. 1.0000     0.      0.00 
   7   8  13      0.00    8.01  0. 1.0000     0.      0.00 
   8   8  13     38.63    8.69  0. 1.0000     0.      0.00 
 -11   9  13     11.35   32.48  0. 1.0000     0.      0.00 
 -10   9  13      0.00   22.93  0. 1.0000     0.      0.00 
  -9   9  13     17.69   10.68  0. 1.0000     0.      0.00 
  -8   9  13      1.32   10.07  0. 1.0000     0.      0.00 
  -7   9  13    249.28    7.57  0. 1.0000     0.      0.00 
  -6   9  13     20.77    3.43  0. 1.0000     0.      0.00 
  -5   9  13    112.35    4.84  0. 1.0000     0.      0.00 
  -4   9  13    107.62    5.11  0. 1.0000     0.      0.00 
  -3   9  13      4.00    3.46  0. 1.0000     0.      0.00 
  -2   9  13    126.63    4.58  0. 1.0000     0.      0.00 
  -1   9  13     12.17    9.16  0. 1.0000     0.      0.00 
   0   9  13    309.91   45.60  0. 1.0000     0.      0.00 
   2   9  13    457.56   18.27  0. 1.0000     0.      0.00 
   3   9  13     25.50    9.93  0. 1.0000     0.      0.00 
   4   9  13    184.68    7.34  0. 1.0000     0.      0.00 
   5   9  13      0.00    6.49  0. 1.0000     0.      0.00 
   6   9  13     13.87    5.97  0. 1.0000     0.      0.00 
   7   9  13     40.71    9.10  0. 1.0000     0.      0.00 
 -11  10  13      3.97   10.74  0. 1.0000     0.      0.00 
 -10  10  13     14.83    8.43  0. 1.0000     0.      0.00 
  -9  10  13      0.00    5.37  0. 1.0000     0.      0.00 
  -8  10  13     16.18    4.08  0. 1.0000     0.      0.00 
  -7  10  13     37.61    6.06  0. 1.0000     0.      0.00 
  -6  10  13    387.73   12.40  0. 1.0000     0.      0.00 
  -5  10  13      0.00    7.51  0. 1.0000     0.      0.00 
  -4  10  13     87.61   16.62  0. 1.0000     0.      0.00 
  -3  10  13      3.02   41.45  0. 1.0000     0.      0.00 
  -2  10  13     90.82   28.43  0. 1.0000     0.      0.00 
  -1  10  13    156.10   14.54  0. 1.0000     0.      0.00 
   0  10  13      0.00    7.50  0. 1.0000     0.      0.00 
   1  10  13     10.29    5.55  0. 1.0000     0.      0.00 
   2  10  13    147.73    6.84  0. 1.0000     0.      0.00 
   3  10  13     48.76    4.65  0. 1.0000     0.      0.00 
   4  10  13     11.24    6.34  0. 1.0000     0.      0.00 
   5  10  13     25.83    8.89  0. 1.0000     0.      0.00 
   6  10  13      0.00   14.81  0. 1.0000     0.      0.00 
 -10  11  13     37.98    7.12  0. 1.0000     0.      0.00 
  -9  11  13     11.31   10.80  0. 1.0000     0.      0.00 
  -8  11  13      5.39   14.30  0. 1.0000     0.      0.00 
  -7  11  13     23.41   23.65  0. 1.0000     0.      0.00 
  -6  11  13     42.54   39.83  0. 1.0000     0.      0.00 
  -4  11  13    210.62   13.43  0. 1.0000     0.      0.00 
  -3  11  13     26.07   10.19  0. 1.0000     0.      0.00 
  -2  11  13     90.16    7.41  0. 1.0000     0.      0.00 
  -1  11  13    236.44    6.56  0. 1.0000     0.      0.00 
   0  11  13      0.51    4.26  0. 1.0000     0.      0.00 
   1  11  13      7.18    5.27  0. 1.0000     0.      0.00 
   2  11  13      0.00    7.32  0. 1.0000     0.      0.00 
   3  11  13      3.69   10.82  0. 1.0000     0.      0.00 
   4  11  13      0.00   25.69  0. 1.0000     0.      0.00 
  -9  12  13      5.34   81.70  0. 1.0000     0.      0.00 
  -8  12  13     18.69   32.48  0. 1.0000     0.      0.00 
  -7  12  13      4.46   15.70  0. 1.0000     0.      0.00 
  -6  12  13      9.13   11.82  0. 1.0000     0.      0.00 
  -5  12  13     26.10    9.26  0. 1.0000     0.      0.00 
  -4  12  13      0.00    5.04  0. 1.0000     0.      0.00 
  -3  12  13    116.21    4.66  0. 1.0000     0.      0.00 
  -2  12  13      0.00    5.82  0. 1.0000     0.      0.00 
  -1  12  13     10.84    6.78  0. 1.0000     0.      0.00 
   0  12  13     56.96   12.31  0. 1.0000     0.      0.00 
   1  12  13      0.00   48.27  0. 1.0000     0.      0.00 
  -7  13  13     42.61    7.16  0. 1.0000     0.      0.00 
  -6  13  13      5.61    5.37  0. 1.0000     0.      0.00 
  -5  13  13     31.81    6.87  0. 1.0000     0.      0.00 
  -4  13  13     24.83    8.66  0. 1.0000     0.      0.00 
  -3  13  13     29.28   17.18  0. 1.0000     0.      0.00 
  -2  13  13     20.65   31.40  0. 1.0000     0.      0.00 
   1 -14  14     54.28   28.23  0. 1.0000     0.      0.00 
   2 -14  14     78.96   14.84  0. 1.0000     0.      0.00 
   3 -14  14     23.96   26.13  0. 1.0000     0.      0.00 
   4 -14  14     14.77   37.29  0. 1.0000     0.      0.00 
   5 -14  14     65.39   13.56  0. 1.0000     0.      0.00 
  -2 -13  14     64.45   12.32  0. 1.0000     0.      0.00 
  -1 -13  14     37.21   13.07  0. 1.0000     0.      0.00 
   0 -13  14     39.18   38.96  0. 1.0000     0.      0.00 
   1 -13  14    115.35   46.05  0. 1.0000     0.      0.00 
   2 -13  14     12.19   11.45  0. 1.0000     0.      0.00 
   3 -13  14      7.11    7.89  0. 1.0000     0.      0.00 
   4 -13  14      0.00    6.91  0. 1.0000     0.      0.00 
   5 -13  14      0.00    5.62  0. 1.0000     0.      0.00 
   6 -13  14      1.56    4.98  0. 1.0000     0.      0.00 
   7 -13  14     84.76    7.43  0. 1.0000     0.      0.00 
   8 -13  14     97.54    9.58  0. 1.0000     0.      0.00 
  -4 -12  14     30.79   22.82  0. 1.0000     0.      0.00 
  -3 -12  14      0.00   35.59  0. 1.0000     0.      0.00 
  -2 -12  14     16.47   49.76  0. 1.0000     0.      0.00 
  -1 -12  14      5.42   13.57  0. 1.0000     0.      0.00 
   0 -12  14    103.09    8.29  0. 1.0000     0.      0.00 
   1 -12  14      0.00    5.77  0. 1.0000     0.      0.00 
   2 -12  14     11.15    4.67  0. 1.0000     0.      0.00 
   3 -12  14    174.72    5.39  0. 1.0000     0.      0.00 
   4 -12  14    110.84    5.39  0. 1.0000     0.      0.00 
   5 -12  14    234.40    7.89  0. 1.0000     0.      0.00 
   6 -12  14     30.74    8.85  0. 1.0000     0.      0.00 
   7 -12  14     22.03   13.51  0. 1.0000     0.      0.00 
   8 -12  14      9.53   21.50  0. 1.0000     0.      0.00 
   9 -12  14      0.00   33.27  0. 1.0000     0.      0.00 
  -5 -11  14     53.72   57.93  0. 1.0000     0.      0.00 
  -4 -11  14    227.00   18.64  0. 1.0000     0.      0.00 
  -3 -11  14      4.83    9.65  0. 1.0000     0.      0.00 
  -2 -11  14      9.08    6.54  0. 1.0000     0.      0.00 
  -1 -11  14     16.22    5.80  0. 1.0000     0.      0.00 
   0 -11  14      8.43    3.40  0. 1.0000     0.      0.00 
   1 -11  14     55.58    5.67  0. 1.0000     0.      0.00 
   2 -11  14    167.90    8.01  0. 1.0000     0.      0.00 
   3 -11  14     10.46    8.69  0. 1.0000     0.      0.00 
   4 -11  14    118.67   11.92  0. 1.0000     0.      0.00 
   5 -11  14     75.95   22.55  0. 1.0000     0.      0.00 
   6 -11  14      0.00   54.64  0. 1.0000     0.      0.00 
   7 -11  14      0.00   11.45  0. 1.0000     0.      0.00 
   8 -11  14     36.89    7.95  0. 1.0000     0.      0.00 
   9 -11  14    100.94    7.58  0. 1.0000     0.      0.00 
  10 -11  14      5.94    6.22  0. 1.0000     0.      0.00 
  -6 -10  14     10.76    9.74  0. 1.0000     0.      0.00 
  -5 -10  14      3.47    7.56  0. 1.0000     0.      0.00 
  -4 -10  14     13.62    6.78  0. 1.0000     0.      0.00 
  -3 -10  14     37.74    4.72  0. 1.0000     0.      0.00 
  -2 -10  14    305.49    6.50  0. 1.0000     0.      0.00 
  -1 -10  14     36.80    4.85  0. 1.0000     0.      0.00 
   0 -10  14      0.00    4.74  0. 1.0000     0.      0.00 
   1 -10  14    386.53    8.99  0. 1.0000     0.      0.00 
   2 -10  14     15.25    9.80  0. 1.0000     0.      0.00 
   3 -10  14      0.00   22.80  0. 1.0000     0.      0.00 
   4 -10  14     48.57    6.21  0. 1.0000     0.      0.00 
   5 -10  14    194.88    5.62  0. 1.0000     0.      0.00 
   6 -10  14      6.94    6.55  0. 1.0000     0.      0.00 
   7 -10  14    202.33    8.03  0. 1.0000     0.      0.00 
   8 -10  14     19.51    4.18  0. 1.0000     0.      0.00 
   9 -10  14      7.54    5.83  0. 1.0000     0.      0.00 
  10 -10  14    104.27    7.64  0. 1.0000     0.      0.00 
  11 -10  14     14.55   11.62  0. 1.0000     0.      0.00 
  -7  -9  14     56.05    8.20  0. 1.0000     0.      0.00 
  -6  -9  14     80.82    6.54  0. 1.0000     0.      0.00 
  -5  -9  14      1.24    6.21  0. 1.0000     0.      0.00 
  -4  -9  14    108.04    7.54  0. 1.0000     0.      0.00 
  -3  -9  14    117.47    5.69  0. 1.0000     0.      0.00 
  -2  -9  14    448.10    9.24  0. 1.0000     0.      0.00 
  -1  -9  14    475.29   19.42  0. 1.0000     0.      0.00 
   0  -9  14     39.52   17.38  0. 1.0000     0.      0.00 
   1  -9  14      5.66    4.62  0. 1.0000     0.      0.00 
   2  -9  14      0.00    3.63  0. 1.0000     0.      0.00 
   3  -9  14     29.09    7.68  0. 1.0000     0.      0.00 
   4  -9  14     13.91    2.88  0. 1.0000     0.      0.00 
   5  -9  14      0.00    2.30  0. 1.0000     0.      0.00 
   6  -9  14     24.79    3.51  0. 1.0000     0.      0.00 
   7  -9  14    137.50    5.24  0. 1.0000     0.      0.00 
   8  -9  14    126.52    9.74  0. 1.0000     0.      0.00 
   9  -9  14      0.00   11.15  0. 1.0000     0.      0.00 
  10  -9  14     54.83   15.15  0. 1.0000     0.      0.00 
  11  -9  14     16.37   35.01  0. 1.0000     0.      0.00 
  12  -9  14     21.44   11.73  0. 1.0000     0.      0.00 
  -8  -8  14    151.94    9.90  0. 1.0000     0.      0.00 
  -7  -8  14     68.97    7.92  0. 1.0000     0.      0.00 
  -6  -8  14    493.19   12.04  0. 1.0000     0.      0.00 
  -5  -8  14     63.33    9.81  0. 1.0000     0.      0.00 
  -4  -8  14    252.03   22.36  0. 1.0000     0.      0.00 
  -3  -8  14     10.79   49.86  0. 1.0000     0.      0.00 
  -2  -8  14      8.32    4.34  0. 1.0000     0.      0.00 
  -1  -8  14    340.29    7.53  0. 1.0000     0.      0.00 
   0  -8  14     29.54    2.81  0. 1.0000     0.      0.00 
   1  -8  14      6.36    2.42  0. 1.0000     0.      0.00 
   2  -8  14      0.61    2.45  0. 1.0000     0.      0.00 
   3  -8  14      0.00    5.95  0. 1.0000     0.      0.00 
   4  -8  14    252.43    4.97  0. 1.0000     0.      0.00 
   5  -8  14    462.44    7.15  0. 1.0000     0.      0.00 
   6  -8  14      1.51    5.75  0. 1.0000     0.      0.00 
   7  -8  14     18.28    9.91  0. 1.0000     0.      0.00 
   8  -8  14     33.35   20.33  0. 1.0000     0.      0.00 
   9  -8  14     39.10   17.79  0. 1.0000     0.      0.00 
  10  -8  14     47.86    8.12  0. 1.0000     0.      0.00 
  11  -8  14     13.70    7.31  0. 1.0000     0.      0.00 
  12  -8  14     24.90    6.88  0. 1.0000     0.      0.00 
  -9  -7  14     14.87   10.37  0. 1.0000     0.      0.00 
  -8  -7  14    130.16   13.15  0. 1.0000     0.      0.00 
  -7  -7  14      8.25   51.80  0. 1.0000     0.      0.00 
  -6  -7  14     15.33   23.26  0. 1.0000     0.      0.00 
  -5  -7  14    306.55    9.35  0. 1.0000     0.      0.00 
  -4  -7  14    132.96    4.54  0. 1.0000     0.      0.00 
  -3  -7  14      3.41    3.09  0. 1.0000     0.      0.00 
  -2  -7  14     14.08    3.29  0. 1.0000     0.      0.00 
  -1  -7  14     40.19    5.33  0. 1.0000     0.      0.00 
   0  -7  14      0.00    2.73  0. 1.0000     0.      0.00 
   1  -7  14   1358.00   15.38  0. 1.0000     0.      0.00 
   2  -7  14    176.70    3.90  0. 1.0000     0.      0.00 
   3  -7  14    336.43    6.03  0. 1.0000     0.      0.00 
   4  -7  14    101.46   10.22  0. 1.0000     0.      0.00 
   5  -7  14    111.32   25.73  0. 1.0000     0.      0.00 
   6  -7  14      5.41    4.76  0. 1.0000     0.      0.00 
   7  -7  14     14.24    4.02  0. 1.0000     0.      0.00 
   8  -7  14    118.25    4.49  0. 1.0000     0.      0.00 
   9  -7  14      3.71    4.72  0. 1.0000     0.      0.00 
  10  -7  14    359.71    7.66  0. 1.0000     0.      0.00 
  11  -7  14     11.71    5.52  0. 1.0000     0.      0.00 
  12  -7  14     28.87    8.56  0. 1.0000     0.      0.00 
 -10  -6  14      0.00   38.22  0. 1.0000     0.      0.00 
  -9  -6  14    115.06   46.89  0. 1.0000     0.      0.00 
  -8  -6  14     62.77   11.52  0. 1.0000     0.      0.00 
  -7  -6  14      6.94    6.45  0. 1.0000     0.      0.00 
  -6  -6  14    284.28    6.76  0. 1.0000     0.      0.00 
  -5  -6  14     16.99    3.63  0. 1.0000     0.      0.00 
  -4  -6  14      4.30    2.00  0. 1.0000     0.      0.00 
  -3  -6  14    736.95    8.48  0. 1.0000     0.      0.00 
  -2  -6  14     48.79    5.57  0. 1.0000     0.      0.00 
  -1  -6  14    919.00   10.23  0. 1.0000     0.      0.00 
   0  -6  14    419.98    7.81  0. 1.0000     0.      0.00 
   1  -6  14    827.06   19.64  0. 1.0000     0.      0.00 
   2  -6  14    550.23   18.66  0. 1.0000     0.      0.00 
   3  -6  14     58.44    4.28  0. 1.0000     0.      0.00 
   4  -6  14    428.20    6.13  0. 1.0000     0.      0.00 
   5  -6  14      3.63    3.97  0. 1.0000     0.      0.00 
   6  -6  14     80.35    2.59  0. 1.0000     0.      0.00 
   7  -6  14      0.00    2.26  0. 1.0000     0.      0.00 
   8  -6  14    128.29    3.79  0. 1.0000     0.      0.00 
   9  -6  14      0.00    4.01  0. 1.0000     0.      0.00 
  10  -6  14      0.00    9.11  0. 1.0000     0.      0.00 
  11  -6  14      4.62   10.45  0. 1.0000     0.      0.00 
  12  -6  14      0.00   18.46  0. 1.0000     0.      0.00 
  13  -6  14     13.19   19.28  0. 1.0000     0.      0.00 
 -10  -5  14    180.18   10.74  0. 1.0000     0.      0.00 
  -9  -5  14      0.00    6.59  0. 1.0000     0.      0.00 
  -8  -5  14     40.04    4.74  0. 1.0000     0.      0.00 
  -7  -5  14     19.04    3.15  0. 1.0000     0.      0.00 
  -6  -5  14     64.18    5.79  0. 1.0000     0.      0.00 
  -5  -5  14    428.25    6.30  0. 1.0000     0.      0.00 
  -4  -5  14    252.73    5.30  0. 1.0000     0.      0.00 
  -3  -5  14   1063.20   11.49  0. 1.0000     0.      0.00 
  -2  -5  14    549.92   13.61  0. 1.0000     0.      0.00 
  -1  -5  14   1169.40   25.34  0. 1.0000     0.      0.00 
   0  -5  14      4.41    2.44  0. 1.0000     0.      0.00 
   1  -5  14     10.57    2.20  0. 1.0000     0.      0.00 
   2  -5  14     13.07    2.33  0. 1.0000     0.      0.00 
   3  -5  14    348.42    4.51  0. 1.0000     0.      0.00 
   4  -5  14     99.64    3.47  0. 1.0000     0.      0.00 
   5  -5  14    343.33    5.10  0. 1.0000     0.      0.00 
   6  -5  14     28.01    3.39  0. 1.0000     0.      0.00 
   7  -5  14     17.64    3.27  0. 1.0000     0.      0.00 
   8  -5  14    289.09    8.01  0. 1.0000     0.      0.00 
   9  -5  14     20.46   16.08  0. 1.0000     0.      0.00 
  10  -5  14    129.19   46.03  0. 1.0000     0.      0.00 
  11  -5  14     41.61   12.91  0. 1.0000     0.      0.00 
  12  -5  14      7.30   12.70  0. 1.0000     0.      0.00 
  13  -5  14    118.77   11.59  0. 1.0000     0.      0.00 
 -11  -4  14     27.84    6.97  0. 1.0000     0.      0.00 
 -10  -4  14     43.56    5.84  0. 1.0000     0.      0.00 
  -9  -4  14    166.59    6.53  0. 1.0000     0.      0.00 
  -8  -4  14    143.90    5.01  0. 1.0000     0.      0.00 
  -7  -4  14    272.51    5.46  0. 1.0000     0.      0.00 
  -6  -4  14     16.44    4.29  0. 1.0000     0.      0.00 
  -5  -4  14    727.31   25.23  0. 1.0000     0.      0.00 
  -4  -4  14    242.32    8.57  0. 1.0000     0.      0.00 
  -3  -4  14     70.09    2.67  0. 1.0000     0.      0.00 
  -2  -4  14    223.48    4.64  0. 1.0000     0.      0.00 
  -1  -4  14     39.13    1.81  0. 1.0000     0.      0.00 
   0  -4  14      3.57    2.33  0. 1.0000     0.      0.00 
   1  -4  14     84.45    1.74  0. 1.0000     0.      0.00 
   2  -4  14    215.35    4.24  0. 1.0000     0.      0.00 
   3  -4  14     52.49    2.69  0. 1.0000     0.      0.00 
   4  -4  14   1999.66   21.15  0. 1.0000     0.      0.00 
   5  -4  14    288.91    4.59  0. 1.0000     0.      0.00 
   6  -4  14    632.94   22.68  0. 1.0000     0.      0.00 
   7  -4  14    187.76   13.81  0. 1.0000     0.      0.00 
   8  -4  14     13.19    5.85  0. 1.0000     0.      0.00 
   9  -4  14     32.96    4.53  0. 1.0000     0.      0.00 
  10  -4  14      8.63    6.62  0. 1.0000     0.      0.00 
  11  -4  14      5.04    4.84  0. 1.0000     0.      0.00 
  12  -4  14      9.05    4.30  0. 1.0000     0.      0.00 
  13  -4  14      9.35    7.48  0. 1.0000     0.      0.00 
 -11  -3  14      8.17    6.61  0. 1.0000     0.      0.00 
 -10  -3  14     67.05    7.14  0. 1.0000     0.      0.00 
  -9  -3  14    122.71   12.93  0. 1.0000     0.      0.00 
  -8  -3  14    495.40   30.11  0. 1.0000     0.      0.00 
  -7  -3  14     65.38   10.48  0. 1.0000     0.      0.00 
  -6  -3  14      2.71    3.66  0. 1.0000     0.      0.00 
  -5  -3  14    123.94    3.60  0. 1.0000     0.      0.00 
  -4  -3  14      4.62    2.02  0. 1.0000     0.      0.00 
  -3  -3  14    164.15    2.64  0. 1.0000     0.      0.00 
  -2  -3  14     37.04    2.16  0. 1.0000     0.      0.00 
  -1  -3  14     24.44    1.31  0. 1.0000     0.      0.00 
   0  -3  14   1583.00   16.19  0. 1.0000     0.      0.00 
   1  -3  14    472.04    5.05  0. 1.0000     0.      0.00 
   2  -3  14   2171.70   20.81  0. 1.0000     0.      0.00 
   3  -3  14    126.15    5.55  0. 1.0000     0.      0.00 
   4  -3  14    939.79   52.42  0. 1.0000     0.      0.00 
   5  -3  14      0.00    2.83  0. 1.0000     0.      0.00 
   6  -3  14     38.40    4.18  0. 1.0000     0.      0.00 
   7  -3  14     84.33    3.11  0. 1.0000     0.      0.00 
   8  -3  14    163.18    3.79  0. 1.0000     0.      0.00 
   9  -3  14     91.64    3.76  0. 1.0000     0.      0.00 
  10  -3  14     45.56    6.34  0. 1.0000     0.      0.00 
  11  -3  14     35.56    6.52  0. 1.0000     0.      0.00 
  12  -3  14      6.33    9.66  0. 1.0000     0.      0.00 
  13  -3  14     89.49   14.59  0. 1.0000     0.      0.00 
 -12  -2  14    115.12   14.47  0. 1.0000     0.      0.00 
 -11  -2  14     54.47   21.74  0. 1.0000     0.      0.00 
 -10  -2  14     39.81   29.68  0. 1.0000     0.      0.00 
  -9  -2  14     11.85    7.68  0. 1.0000     0.      0.00 
  -8  -2  14      0.00    4.17  0. 1.0000     0.      0.00 
  -7  -2  14    684.01    8.50  0. 1.0000     0.      0.00 
  -6  -2  14     26.25    2.34  0. 1.0000     0.      0.00 
  -5  -2  14      8.14    1.71  0. 1.0000     0.      0.00 
  -4  -2  14    257.44    3.51  0. 1.0000     0.      0.00 
  -3  -2  14     23.94    2.35  0. 1.0000     0.      0.00 
  -2  -2  14   1009.30   14.84  0. 1.0000     0.      0.00 
  -1  -2  14   1143.22   12.02  0. 1.0000     0.      0.00 
   0  -2  14    511.39   16.46  0. 1.0000     0.      0.00 
   1  -2  14     71.11    5.55  0. 1.0000     0.      0.00 
   2  -2  14    323.45   10.83  0. 1.0000     0.      0.00 
   3  -2  14    231.67    3.05  0. 1.0000     0.      0.00 
   4  -2  14      0.20    2.05  0. 1.0000     0.      0.00 
   5  -2  14      5.15    1.67  0. 1.0000     0.      0.00 
   6  -2  14     91.03    2.29  0. 1.0000     0.      0.00 
   7  -2  14    387.44    5.54  0. 1.0000     0.      0.00 
   8  -2  14    372.50    7.45  0. 1.0000     0.      0.00 
   9  -2  14    215.17    6.43  0. 1.0000     0.      0.00 
  10  -2  14    116.07   16.47  0. 1.0000     0.      0.00 
  11  -2  14     21.74   20.10  0. 1.0000     0.      0.00 
  12  -2  14     10.69   32.45  0. 1.0000     0.      0.00 
  13  -2  14      6.94   11.43  0. 1.0000     0.      0.00 
 -12  -1  14      5.57   14.04  0. 1.0000     0.      0.00 
 -11  -1  14    400.61   11.31  0. 1.0000     0.      0.00 
 -10  -1  14     48.37    6.22  0. 1.0000     0.      0.00 
  -9  -1  14      0.00    3.55  0. 1.0000     0.      0.00 
  -8  -1  14     49.39    2.89  0. 1.0000     0.      0.00 
  -7  -1  14      8.33    2.54  0. 1.0000     0.      0.00 
  -6  -1  14     84.64    4.13  0. 1.0000     0.      0.00 
  -5  -1  14    888.09   11.64  0. 1.0000     0.      0.00 
  -4  -1  14     86.03    2.54  0. 1.0000     0.      0.00 
  -3  -1  14    113.95    4.56  0. 1.0000     0.      0.00 
  -2  -1  14   1313.06   29.78  0. 1.0000     0.      0.00 
  -1  -1  14    605.75    7.53  0. 1.0000     0.      0.00 
   0  -1  14      2.18    1.51  0. 1.0000     0.      0.00 
   1  -1  14     74.41    1.67  0. 1.0000     0.      0.00 
   2  -1  14    712.23    6.86  0. 1.0000     0.      0.00 
   3  -1  14     55.31    1.22  0. 1.0000     0.      0.00 
   4  -1  14    797.33    9.71  0. 1.0000     0.      0.00 
   5  -1  14    190.84    3.22  0. 1.0000     0.      0.00 
   6  -1  14      9.93    2.55  0. 1.0000     0.      0.00 
   7  -1  14    722.67   13.00  0. 1.0000     0.      0.00 
   8  -1  14     37.21   16.20  0. 1.0000     0.      0.00 
   9  -1  14    359.02   49.63  0. 1.0000     0.      0.00 
  10  -1  14     49.27   13.05  0. 1.0000     0.      0.00 
  11  -1  14      0.00   10.14  0. 1.0000     0.      0.00 
  12  -1  14     44.52    8.02  0. 1.0000     0.      0.00 
 -12   0  14     88.97    6.73  0. 1.0000     0.      0.00 
 -11   0  14     23.45    4.96  0. 1.0000     0.      0.00 
 -10   0  14     57.29    6.30  0. 1.0000     0.      0.00 
  -9   0  14    151.63    4.65  0. 1.0000     0.      0.00 
  -8   0  14      0.00    3.64  0. 1.0000     0.      0.00 
  -7   0  14    538.09    9.91  0. 1.0000     0.      0.00 
  -6   0  14    134.10   10.71  0. 1.0000     0.      0.00 
  -5   0  14   1426.97   41.77  0. 1.0000     0.      0.00 
  -4   0  14    840.00   10.82  0. 1.0000     0.      0.00 
  -3   0  14    194.47    4.04  0. 1.0000     0.      0.00 
  -2   0  14    222.97    3.51  0. 1.0000     0.      0.00 
  -1   0  14     13.83    1.33  0. 1.0000     0.      0.00 
   0   0  14      4.14    0.92  0. 1.0000     0.      0.00 
   1   0  14     58.26    1.42  0. 1.0000     0.      0.00 
   2   0  14    332.45    4.09  0. 1.0000     0.      0.00 
   3   0  14    534.81    5.91  0. 1.0000     0.      0.00 
   4   0  14    138.11    4.89  0. 1.0000     0.      0.00 
   5   0  14    786.76   32.56  0. 1.0000     0.      0.00 
   6   0  14     49.18   13.12  0. 1.0000     0.      0.00 
   7   0  14    211.14    5.36  0. 1.0000     0.      0.00 
   8   0  14     24.89    3.71  0. 1.0000     0.      0.00 
   9   0  14      0.00    4.46  0. 1.0000     0.      0.00 
  10   0  14     36.48    5.90  0. 1.0000     0.      0.00 
  11   0  14    111.69    5.06  0. 1.0000     0.      0.00 
  12   0  14      4.09    6.88  0. 1.0000     0.      0.00 
 -13   1  14     10.84    8.13  0. 1.0000     0.      0.00 
 -12   1  14     30.45    6.61  0. 1.0000     0.      0.00 
 -11   1  14    184.71    7.78  0. 1.0000     0.      0.00 
 -10   1  14     13.31    8.77  0. 1.0000     0.      0.00 
  -9   1  14    579.54   18.50  0. 1.0000     0.      0.00 
  -8   1  14    255.96   12.84  0. 1.0000     0.      0.00 
  -7   1  14    527.48   10.94  0. 1.0000     0.      0.00 
  -6   1  14      4.26    2.44  0. 1.0000     0.      0.00 
  -5   1  14     10.66    2.15  0. 1.0000     0.      0.00 
  -4   1  14    270.53    6.56  0. 1.0000     0.      0.00 
  -3   1  14      0.00    1.19  0. 1.0000     0.      0.00 
  -2   1  14     41.35    2.88  0. 1.0000     0.      0.00 
  -1   1  14     28.48    1.52  0. 1.0000     0.      0.00 
   0   1  14     12.88    1.47  0. 1.0000     0.      0.00 
   1   1  14    618.25    7.87  0. 1.0000     0.      0.00 
   2   1  14   1387.88  145.92  0. 1.0000     0.      0.00 
   3   1  14    216.02   20.94  0. 1.0000     0.      0.00 
   4   1  14    703.73   11.18  0. 1.0000     0.      0.00 
   5   1  14      6.98    2.39  0. 1.0000     0.      0.00 
   6   1  14     19.45    3.66  0. 1.0000     0.      0.00 
   7   1  14    168.16    4.67  0. 1.0000     0.      0.00 
   8   1  14      9.99    2.47  0. 1.0000     0.      0.00 
   9   1  14     23.06    4.61  0. 1.0000     0.      0.00 
  10   1  14     75.04    8.05  0. 1.0000     0.      0.00 
  11   1  14     48.46   11.44  0. 1.0000     0.      0.00 
  12   1  14     98.12   18.60  0. 1.0000     0.      0.00 
 -13   2  14     24.78   14.07  0. 1.0000     0.      0.00 
 -12   2  14     24.03   16.81  0. 1.0000     0.      0.00 
 -11   2  14    163.26   16.92  0. 1.0000     0.      0.00 
 -10   2  14      0.00    9.05  0. 1.0000     0.      0.00 
  -9   2  14      3.71    4.49  0. 1.0000     0.      0.00 
  -8   2  14    556.45    8.84  0. 1.0000     0.      0.00 
  -7   2  14     76.54    3.54  0. 1.0000     0.      0.00 
  -6   2  14     31.35    2.01  0. 1.0000     0.      0.00 
  -5   2  14      9.18    1.69  0. 1.0000     0.      0.00 
  -4   2  14    289.29    4.60  0. 1.0000     0.      0.00 
  -3   2  14      6.98    2.02  0. 1.0000     0.      0.00 
  -2   2  14   2686.30   27.40  0. 1.0000     0.      0.00 
  -1   2  14    121.57    9.60  0. 1.0000     0.      0.00 
   0   2  14   1158.99   72.27  0. 1.0000     0.      0.00 
   1   2  14      8.90    1.96  0. 1.0000     0.      0.00 
   2   2  14    132.28    4.08  0. 1.0000     0.      0.00 
   3   2  14      2.72    1.78  0. 1.0000     0.      0.00 
   4   2  14    121.64    2.91  0. 1.0000     0.      0.00 
   5   2  14     21.86    1.81  0. 1.0000     0.      0.00 
   6   2  14    125.57    3.86  0. 1.0000     0.      0.00 
   7   2  14    256.06    4.70  0. 1.0000     0.      0.00 
   8   2  14     23.56    5.33  0. 1.0000     0.      0.00 
   9   2  14     28.43   16.22  0. 1.0000     0.      0.00 
  10   2  14     44.00   24.64  0. 1.0000     0.      0.00 
  12   2  14     17.70   22.64  0. 1.0000     0.      0.00 
 -13   3  14      0.00   18.18  0. 1.0000     0.      0.00 
 -12   3  14     98.31    9.17  0. 1.0000     0.      0.00 
 -11   3  14     33.34    5.69  0. 1.0000     0.      0.00 
 -10   3  14     25.07    5.62  0. 1.0000     0.      0.00 
  -9   3  14    224.40    4.57  0. 1.0000     0.      0.00 
  -8   3  14      0.00    2.72  0. 1.0000     0.      0.00 
  -7   3  14     43.56    2.90  0. 1.0000     0.      0.00 
  -6   3  14    608.27    7.88  0. 1.0000     0.      0.00 
  -5   3  14    140.94    3.97  0. 1.0000     0.      0.00 
  -4   3  14   1488.33   60.80  0. 1.0000     0.      0.00 
  -2   3  14   1640.94   19.11  0. 1.0000     0.      0.00 
  -1   3  14    149.27    2.70  0. 1.0000     0.      0.00 
   0   3  14    382.62    4.95  0. 1.0000     0.      0.00 
   1   3  14    421.41    8.53  0. 1.0000     0.      0.00 
   2   3  14      0.00    3.20  0. 1.0000     0.      0.00 
   3   3  14     99.50    2.63  0. 1.0000     0.      0.00 
   4   3  14      7.58    2.77  0. 1.0000     0.      0.00 
   5   3  14    356.51    5.15  0. 1.0000     0.      0.00 
   6   3  14     48.78    5.35  0. 1.0000     0.      0.00 
   7   3  14    267.78   32.28  0. 1.0000     0.      0.00 
   9   3  14      0.00   13.84  0. 1.0000     0.      0.00 
  10   3  14     18.06   10.20  0. 1.0000     0.      0.00 
  11   3  14      0.00    8.34  0. 1.0000     0.      0.00 
 -13   4  14    213.60    9.63  0. 1.0000     0.      0.00 
 -12   4  14      9.02    5.52  0. 1.0000     0.      0.00 
 -11   4  14      5.28    4.77  0. 1.0000     0.      0.00 
 -10   4  14      4.68    6.92  0. 1.0000     0.      0.00 
  -9   4  14      0.00    4.52  0. 1.0000     0.      0.00 
  -8   4  14    400.97   12.33  0. 1.0000     0.      0.00 
  -7   4  14     90.22   13.59  0. 1.0000     0.      0.00 
  -6   4  14    839.58   76.72  0. 1.0000     0.      0.00 
  -5   4  14    522.92    8.07  0. 1.0000     0.      0.00 
  -4   4  14    715.77    8.47  0. 1.0000     0.      0.00 
  -3   4  14    155.79    6.94  0. 1.0000     0.      0.00 
  -2   4  14      0.00    3.28  0. 1.0000     0.      0.00 
  -1   4  14     52.68    1.66  0. 1.0000     0.      0.00 
   0   4  14      6.69    2.29  0. 1.0000     0.      0.00 
   1   4  14    422.05    5.62  0. 1.0000     0.      0.00 
   2   4  14    143.39    3.22  0. 1.0000     0.      0.00 
   3   4  14    106.00    3.56  0. 1.0000     0.      0.00 
   4   4  14     29.19   18.04  0. 1.0000     0.      0.00 
   6   4  14     44.27   10.78  0. 1.0000     0.      0.00 
   7   4  14    343.82    7.55  0. 1.0000     0.      0.00 
   8   4  14      0.00    5.57  0. 1.0000     0.      0.00 
   9   4  14     85.88    6.03  0. 1.0000     0.      0.00 
  10   4  14     46.15    5.74  0. 1.0000     0.      0.00 
  11   4  14      6.70   11.39  0. 1.0000     0.      0.00 
 -13   5  14     24.30    8.51  0. 1.0000     0.      0.00 
 -12   5  14     19.47    8.46  0. 1.0000     0.      0.00 
 -11   5  14      4.52   11.61  0. 1.0000     0.      0.00 
  -9   5  14      0.00   15.23  0. 1.0000     0.      0.00 
  -8   5  14    252.30    8.48  0. 1.0000     0.      0.00 
  -7   5  14     50.32    3.75  0. 1.0000     0.      0.00 
  -6   5  14     45.19    5.20  0. 1.0000     0.      0.00 
  -5   5  14     13.14    2.27  0. 1.0000     0.      0.00 
  -4   5  14     67.56    2.18  0. 1.0000     0.      0.00 
  -3   5  14     43.13    6.09  0. 1.0000     0.      0.00 
  -2   5  14    121.90    2.60  0. 1.0000     0.      0.00 
  -1   5  14    168.18    3.36  0. 1.0000     0.      0.00 
   0   5  14      0.00    4.74  0. 1.0000     0.      0.00 
   1   5  14   1779.20  145.89  0. 1.0000     0.      0.00 
   3   5  14   1238.04   20.14  0. 1.0000     0.      0.00 
   4   5  14    149.66    8.13  0. 1.0000     0.      0.00 
   5   5  14     45.69    3.15  0. 1.0000     0.      0.00 
   6   5  14     15.10    3.32  0. 1.0000     0.      0.00 
   7   5  14      0.00    4.54  0. 1.0000     0.      0.00 
   8   5  14      6.62    6.39  0. 1.0000     0.      0.00 
   9   5  14     16.05    8.37  0. 1.0000     0.      0.00 
  10   5  14     22.49   14.14  0. 1.0000     0.      0.00 
 -12   6  14      7.49   18.17  0. 1.0000     0.      0.00 
 -11   6  14     82.87   11.56  0. 1.0000     0.      0.00 
 -10   6  14    105.05   10.35  0. 1.0000     0.      0.00 
  -9   6  14     10.41    4.48  0. 1.0000     0.      0.00 
  -8   6  14      0.00    3.39  0. 1.0000     0.      0.00 
  -7   6  14     48.18    4.12  0. 1.0000     0.      0.00 
  -6   6  14     57.98    2.72  0. 1.0000     0.      0.00 
  -5   6  14     65.87    2.81  0. 1.0000     0.      0.00 
  -4   6  14     25.48    2.76  0. 1.0000     0.      0.00 
  -3   6  14    918.19   14.44  0. 1.0000     0.      0.00 
  -2   6  14    309.70   22.75  0. 1.0000     0.      0.00 
  -1   6  14   1074.73   84.61  0. 1.0000     0.      0.00 
   0   6  14      0.00    4.52  0. 1.0000     0.      0.00 
   1   6  14    362.10    7.06  0. 1.0000     0.      0.00 
   2   6  14     91.57    3.38  0. 1.0000     0.      0.00 
   3   6  14     98.40    3.20  0. 1.0000     0.      0.00 
   4   6  14      0.00    4.60  0. 1.0000     0.      0.00 
   5   6  14      3.68    3.30  0. 1.0000     0.      0.00 
   6   6  14     10.29    5.32  0. 1.0000     0.      0.00 
   7   6  14     25.09    9.71  0. 1.0000     0.      0.00 
   8   6  14      0.00   16.86  0. 1.0000     0.      0.00 
   9   6  14     72.02   30.67  0. 1.0000     0.      0.00 
 -12   7  14     10.19    8.19  0. 1.0000     0.      0.00 
 -11   7  14      1.75    6.64  0. 1.0000     0.      0.00 
 -10   7  14    284.74    6.53  0. 1.0000     0.      0.00 
  -9   7  14      9.58    5.07  0. 1.0000     0.      0.00 
  -8   7  14     52.11    4.36  0. 1.0000     0.      0.00 
  -7   7  14     12.73    4.49  0. 1.0000     0.      0.00 
  -6   7  14      0.34    6.28  0. 1.0000     0.      0.00 
  -5   7  14    292.71   21.36  0. 1.0000     0.      0.00 
  -4   7  14    273.16   30.97  0. 1.0000     0.      0.00 
  -3   7  14    232.31    6.94  0. 1.0000     0.      0.00 
  -2   7  14      4.34    2.88  0. 1.0000     0.      0.00 
  -1   7  14    107.48    5.23  0. 1.0000     0.      0.00 
   0   7  14    126.64    3.43  0. 1.0000     0.      0.00 
   1   7  14      8.06    2.27  0. 1.0000     0.      0.00 
   2   7  14      0.00    2.96  0. 1.0000     0.      0.00 
   3   7  14     26.59    3.21  0. 1.0000     0.      0.00 
   4   7  14    445.62    8.71  0. 1.0000     0.      0.00 
   5   7  14     30.63   31.07  0. 1.0000     0.      0.00 
   8   7  14      2.60   25.31  0. 1.0000     0.      0.00 
   9   7  14      2.27   10.42  0. 1.0000     0.      0.00 
 -12   8  14     17.55    7.28  0. 1.0000     0.      0.00 
 -11   8  14      8.19    7.82  0. 1.0000     0.      0.00 
 -10   8  14      0.00   10.16  0. 1.0000     0.      0.00 
  -9   8  14     28.10   21.17  0. 1.0000     0.      0.00 
  -8   8  14    228.37   68.02  0. 1.0000     0.      0.00 
  -7   8  14      0.00   21.46  0. 1.0000     0.      0.00 
  -6   8  14      6.11    7.02  0. 1.0000     0.      0.00 
  -5   8  14     62.26    4.73  0. 1.0000     0.      0.00 
  -4   8  14     34.16    3.35  0. 1.0000     0.      0.00 
  -3   8  14      0.00    3.29  0. 1.0000     0.      0.00 
  -2   8  14    137.76    3.14  0. 1.0000     0.      0.00 
  -1   8  14      5.69    5.98  0. 1.0000     0.      0.00 
   0   8  14     53.63    3.33  0. 1.0000     0.      0.00 
   1   8  14    138.14    4.41  0. 1.0000     0.      0.00 
   2   8  14     18.13   12.58  0. 1.0000     0.      0.00 
   5   8  14     49.31   15.68  0. 1.0000     0.      0.00 
   6   8  14    253.75   11.59  0. 1.0000     0.      0.00 
   7   8  14     12.47    8.09  0. 1.0000     0.      0.00 
   8   8  14     32.35    8.98  0. 1.0000     0.      0.00 
 -11   9  14      8.61   29.44  0. 1.0000     0.      0.00 
 -10   9  14     91.97   16.81  0. 1.0000     0.      0.00 
  -9   9  14      7.20   12.48  0. 1.0000     0.      0.00 
  -8   9  14    232.24   10.51  0. 1.0000     0.      0.00 
  -7   9  14    148.59    8.77  0. 1.0000     0.      0.00 
  -6   9  14     37.61    3.65  0. 1.0000     0.      0.00 
  -5   9  14    178.25    6.24  0. 1.0000     0.      0.00 
  -4   9  14     14.78    4.33  0. 1.0000     0.      0.00 
  -3   9  14     25.00    3.68  0. 1.0000     0.      0.00 
  -2   9  14      0.00    4.64  0. 1.0000     0.      0.00 
  -1   9  14      0.00   13.71  0. 1.0000     0.      0.00 
   2   9  14    230.48   20.52  0. 1.0000     0.      0.00 
   3   9  14      1.66    9.68  0. 1.0000     0.      0.00 
   4   9  14     21.07    6.83  0. 1.0000     0.      0.00 
   5   9  14     15.97    6.34  0. 1.0000     0.      0.00 
   6   9  14      0.00    6.85  0. 1.0000     0.      0.00 
   7   9  14     40.16    9.58  0. 1.0000     0.      0.00 
 -11  10  14    117.79    6.01  0. 1.0000     0.      0.00 
 -10  10  14     31.29    8.93  0. 1.0000     0.      0.00 
  -9  10  14     37.57    5.70  0. 1.0000     0.      0.00 
  -8  10  14      0.00    4.30  0. 1.0000     0.      0.00 
  -7  10  14     20.03    5.46  0. 1.0000     0.      0.00 
  -6  10  14      1.39    6.55  0. 1.0000     0.      0.00 
  -5  10  14      0.00   11.91  0. 1.0000     0.      0.00 
  -4  10  14      0.00   13.16  0. 1.0000     0.      0.00 
  -3  10  14      0.00   32.62  0. 1.0000     0.      0.00 
  -2  10  14      0.00   39.69  0. 1.0000     0.      0.00 
  -1  10  14     51.45   16.04  0. 1.0000     0.      0.00 
   0  10  14     11.08   14.11  0. 1.0000     0.      0.00 
   1  10  14    234.38    8.61  0. 1.0000     0.      0.00 
   2  10  14      5.02    5.36  0. 1.0000     0.      0.00 
   3  10  14     17.04    4.89  0. 1.0000     0.      0.00 
   4  10  14      8.66    6.58  0. 1.0000     0.      0.00 
   5  10  14      8.02    9.86  0. 1.0000     0.      0.00 
   6  10  14      0.00   32.63  0. 1.0000     0.      0.00 
 -10  11  14     10.43    7.76  0. 1.0000     0.      0.00 
  -9  11  14     18.21   10.68  0. 1.0000     0.      0.00 
  -8  11  14      3.63   16.14  0. 1.0000     0.      0.00 
  -7  11  14      0.00   26.02  0. 1.0000     0.      0.00 
  -6  11  14      0.00   32.00  0. 1.0000     0.      0.00 
  -5  11  14    287.23   43.03  0. 1.0000     0.      0.00 
  -4  11  14     13.27   12.44  0. 1.0000     0.      0.00 
  -3  11  14    177.77   10.81  0. 1.0000     0.      0.00 
  -2  11  14     11.82    6.06  0. 1.0000     0.      0.00 
  -1  11  14      0.00    4.84  0. 1.0000     0.      0.00 
   0  11  14      5.79    3.80  0. 1.0000     0.      0.00 
   1  11  14     10.39    5.18  0. 1.0000     0.      0.00 
   2  11  14     11.78    7.26  0. 1.0000     0.      0.00 
   3  11  14     74.97   12.34  0. 1.0000     0.      0.00 
   4  11  14     24.08   22.93  0. 1.0000     0.      0.00 
  -8  12  14    103.19   28.57  0. 1.0000     0.      0.00 
  -7  12  14     46.78   15.78  0. 1.0000     0.      0.00 
  -6  12  14      3.10   12.90  0. 1.0000     0.      0.00 
  -5  12  14     41.29    9.15  0. 1.0000     0.      0.00 
  -4  12  14     16.14    4.99  0. 1.0000     0.      0.00 
  -3  12  14     90.30    5.06  0. 1.0000     0.      0.00 
  -2  12  14     44.24    5.28  0. 1.0000     0.      0.00 
  -1  12  14      3.41    7.01  0. 1.0000     0.      0.00 
   0  12  14     17.85   12.84  0. 1.0000     0.      0.00 
   1  12  14      0.00   48.29  0. 1.0000     0.      0.00 
  -6  13  14     61.70    6.11  0. 1.0000     0.      0.00 
  -5  13  14     17.20    6.85  0. 1.0000     0.      0.00 
  -4  13  14      3.97    9.30  0. 1.0000     0.      0.00 
  -3  13  14     33.53   17.38  0. 1.0000     0.      0.00 
  -2  13  14     34.36   32.09  0. 1.0000     0.      0.00 
   2 -14  15     96.42   33.78  0. 1.0000     0.      0.00 
   3 -14  15     52.27   23.07  0. 1.0000     0.      0.00 
   4 -14  15      0.00   26.35  0. 1.0000     0.      0.00 
  -1 -13  15     20.28   13.48  0. 1.0000     0.      0.00 
   0 -13  15     56.10   26.01  0. 1.0000     0.      0.00 
   1 -13  15     47.65   25.83  0. 1.0000     0.      0.00 
   2 -13  15     53.46   13.10  0. 1.0000     0.      0.00 
   3 -13  15     15.56    7.84  0. 1.0000     0.      0.00 
   4 -13  15      0.00    6.72  0. 1.0000     0.      0.00 
   5 -13  15     67.88    6.35  0. 1.0000     0.      0.00 
   6 -13  15    344.43    8.19  0. 1.0000     0.      0.00 
   7 -13  15      5.92    7.47  0. 1.0000     0.      0.00 
  -3 -12  15     82.52   26.70  0. 1.0000     0.      0.00 
  -2 -12  15     40.14   43.23  0. 1.0000     0.      0.00 
  -1 -12  15     29.89   16.62  0. 1.0000     0.      0.00 
   0 -12  15     43.63    7.76  0. 1.0000     0.      0.00 
   1 -12  15    130.64    6.22  0. 1.0000     0.      0.00 
   2 -12  15    319.98    6.89  0. 1.0000     0.      0.00 
   3 -12  15     54.98    4.29  0. 1.0000     0.      0.00 
   4 -12  15      0.00    5.53  0. 1.0000     0.      0.00 
   5 -12  15    219.22    7.85  0. 1.0000     0.      0.00 
   6 -12  15      0.00    8.54  0. 1.0000     0.      0.00 
   7 -12  15     11.34   12.70  0. 1.0000     0.      0.00 
   8 -12  15      0.00   21.19  0. 1.0000     0.      0.00 
   9 -12  15     65.52   22.84  0. 1.0000     0.      0.00 
  -5 -11  15    149.99   66.92  0. 1.0000     0.      0.00 
  -4 -11  15      0.00   21.36  0. 1.0000     0.      0.00 
  -3 -11  15     68.52    9.05  0. 1.0000     0.      0.00 
  -2 -11  15      6.89    6.91  0. 1.0000     0.      0.00 
  -1 -11  15     10.06    5.31  0. 1.0000     0.      0.00 
   0 -11  15     72.40    7.07  0. 1.0000     0.      0.00 
   1 -11  15    580.32   11.40  0. 1.0000     0.      0.00 
   2 -11  15     79.51    7.89  0. 1.0000     0.      0.00 
   3 -11  15    156.55   10.89  0. 1.0000     0.      0.00 
   4 -11  15     16.47   10.78  0. 1.0000     0.      0.00 
   5 -11  15      0.00   19.40  0. 1.0000     0.      0.00 
   6 -11  15    148.11   52.03  0. 1.0000     0.      0.00 
   7 -11  15     12.59   10.36  0. 1.0000     0.      0.00 
   8 -11  15      6.15    8.05  0. 1.0000     0.      0.00 
   9 -11  15    357.78    9.75  0. 1.0000     0.      0.00 
  10 -11  15      6.67    6.37  0. 1.0000     0.      0.00 
  -6 -10  15     19.63   10.43  0. 1.0000     0.      0.00 
  -5 -10  15     21.42    7.89  0. 1.0000     0.      0.00 
  -4 -10  15    179.59    9.45  0. 1.0000     0.      0.00 
  -3 -10  15    336.22    7.89  0. 1.0000     0.      0.00 
  -2 -10  15      6.18    4.04  0. 1.0000     0.      0.00 
  -1 -10  15    266.43    6.69  0. 1.0000     0.      0.00 
   0 -10  15     64.67    5.32  0. 1.0000     0.      0.00 
   1 -10  15     53.87    7.11  0. 1.0000     0.      0.00 
   2 -10  15     73.22   11.42  0. 1.0000     0.      0.00 
   3 -10  15     12.46   22.62  0. 1.0000     0.      0.00 
   4 -10  15     85.53    7.11  0. 1.0000     0.      0.00 
   5 -10  15    201.25    7.88  0. 1.0000     0.      0.00 
   6 -10  15     15.79   10.31  0. 1.0000     0.      0.00 
   7 -10  15      5.63    4.43  0. 1.0000     0.      0.00 
   8 -10  15    179.03    5.51  0. 1.0000     0.      0.00 
   9 -10  15    180.76    6.97  0. 1.0000     0.      0.00 
  10 -10  15     20.86    8.10  0. 1.0000     0.      0.00 
  11 -10  15     18.08   11.82  0. 1.0000     0.      0.00 
  -7  -9  15     29.72    8.24  0. 1.0000     0.      0.00 
  -6  -9  15     72.47    6.61  0. 1.0000     0.      0.00 
  -5  -9  15      4.50    6.15  0. 1.0000     0.      0.00 
  -4  -9  15    159.08    7.31  0. 1.0000     0.      0.00 
  -3  -9  15    266.61    8.75  0. 1.0000     0.      0.00 
  -2  -9  15    164.41    6.89  0. 1.0000     0.      0.00 
  -1  -9  15    135.75   13.90  0. 1.0000     0.      0.00 
   0  -9  15    182.40   16.98  0. 1.0000     0.      0.00 
   1  -9  15     78.76    5.11  0. 1.0000     0.      0.00 
   2  -9  15     39.17    3.98  0. 1.0000     0.      0.00 
   3  -9  15     15.04    3.50  0. 1.0000     0.      0.00 
   4  -9  15    592.33    7.68  0. 1.0000     0.      0.00 
   5  -9  15    656.21    8.42  0. 1.0000     0.      0.00 
   6  -9  15     52.90    3.95  0. 1.0000     0.      0.00 
   7  -9  15    210.88    7.71  0. 1.0000     0.      0.00 
   8  -9  15    135.82    7.80  0. 1.0000     0.      0.00 
   9  -9  15      8.04   11.24  0. 1.0000     0.      0.00 
  10  -9  15     45.21   16.50  0. 1.0000     0.      0.00 
  11  -9  15     55.30   54.44  0. 1.0000     0.      0.00 
  -8  -8  15     31.96    7.98  0. 1.0000     0.      0.00 
  -7  -8  15     21.79    7.91  0. 1.0000     0.      0.00 
  -6  -8  15    312.25   10.20  0. 1.0000     0.      0.00 
  -5  -8  15     82.31    9.80  0. 1.0000     0.      0.00 
  -4  -8  15    274.20   25.43  0. 1.0000     0.      0.00 
  -3  -8  15     71.61   39.21  0. 1.0000     0.      0.00 
  -2  -8  15     28.05    4.99  0. 1.0000     0.      0.00 
  -1  -8  15     68.64    3.68  0. 1.0000     0.      0.00 
   0  -8  15    629.61    7.70  0. 1.0000     0.      0.00 
   1  -8  15     23.00    2.85  0. 1.0000     0.      0.00 
   2  -8  15     82.96    3.16  0. 1.0000     0.      0.00 
   3  -8  15    232.24    4.11  0. 1.0000     0.      0.00 
   4  -8  15    659.75    9.58  0. 1.0000     0.      0.00 
   5  -8  15      1.71    3.73  0. 1.0000     0.      0.00 
   6  -8  15     55.67    6.01  0. 1.0000     0.      0.00 
   7  -8  15    144.72   14.54  0. 1.0000     0.      0.00 
   9  -8  15     10.78   12.91  0. 1.0000     0.      0.00 
  10  -8  15     35.52    8.55  0. 1.0000     0.      0.00 
  11  -8  15     12.62    7.56  0. 1.0000     0.      0.00 
  12  -8  15    134.94    7.87  0. 1.0000     0.      0.00 
  -9  -7  15     15.21   10.29  0. 1.0000     0.      0.00 
  -8  -7  15     86.01   13.93  0. 1.0000     0.      0.00 
  -7  -7  15      3.52   42.14  0. 1.0000     0.      0.00 
  -6  -7  15    307.27   31.05  0. 1.0000     0.      0.00 
  -5  -7  15      6.96    6.49  0. 1.0000     0.      0.00 
  -4  -7  15    133.05    4.49  0. 1.0000     0.      0.00 
  -3  -7  15    317.77    5.13  0. 1.0000     0.      0.00 
  -2  -7  15     79.04    2.88  0. 1.0000     0.      0.00 
  -1  -7  15    379.79    5.49  0. 1.0000     0.      0.00 
   0  -7  15   1687.31   17.20  0. 1.0000     0.      0.00 
   1  -7  15      0.00    3.89  0. 1.0000     0.      0.00 
   2  -7  15    158.07    3.81  0. 1.0000     0.      0.00 
   3  -7  15    474.18    9.07  0. 1.0000     0.      0.00 
   4  -7  15     76.81   10.60  0. 1.0000     0.      0.00 
   5  -7  15    217.37   18.62  0. 1.0000     0.      0.00 
   6  -7  15     83.57    5.39  0. 1.0000     0.      0.00 
   7  -7  15     60.01    4.30  0. 1.0000     0.      0.00 
   8  -7  15    238.76    5.69  0. 1.0000     0.      0.00 
   9  -7  15     19.96    5.39  0. 1.0000     0.      0.00 
  10  -7  15     67.72    4.90  0. 1.0000     0.      0.00 
  11  -7  15    210.43    6.74  0. 1.0000     0.      0.00 
  12  -7  15     49.82    8.96  0. 1.0000     0.      0.00 
 -10  -6  15    150.39   19.47  0. 1.0000     0.      0.00 
  -9  -6  15      0.00   47.06  0. 1.0000     0.      0.00 
  -8  -6  15     69.32   10.77  0. 1.0000     0.      0.00 
  -7  -6  15    151.46    7.80  0. 1.0000     0.      0.00 
  -6  -6  15     70.55    4.40  0. 1.0000     0.      0.00 
  -5  -6  15    248.13    4.66  0. 1.0000     0.      0.00 
  -4  -6  15    212.48    3.90  0. 1.0000     0.      0.00 
  -3  -6  15    238.98    4.28  0. 1.0000     0.      0.00 
  -2  -6  15     21.54    2.56  0. 1.0000     0.      0.00 
  -1  -6  15    524.02    7.92  0. 1.0000     0.      0.00 
   0  -6  15     31.71    3.27  0. 1.0000     0.      0.00 
   1  -6  15    242.20   13.51  0. 1.0000     0.      0.00 
   2  -6  15     13.70    9.57  0. 1.0000     0.      0.00 
   3  -6  15    390.97    9.53  0. 1.0000     0.      0.00 
   4  -6  15     46.82    3.20  0. 1.0000     0.      0.00 
   5  -6  15     58.73    3.09  0. 1.0000     0.      0.00 
   6  -6  15      2.61    2.40  0. 1.0000     0.      0.00 
   7  -6  15    771.41    9.16  0. 1.0000     0.      0.00 
   8  -6  15    249.75    4.62  0. 1.0000     0.      0.00 
   9  -6  15     32.24    4.98  0. 1.0000     0.      0.00 
  10  -6  15    378.36   11.77  0. 1.0000     0.      0.00 
  11  -6  15     27.15   10.84  0. 1.0000     0.      0.00 
  12  -6  15     36.75   25.56  0. 1.0000     0.      0.00 
 -10  -5  15     37.37    9.59  0. 1.0000     0.      0.00 
  -9  -5  15     51.11    6.81  0. 1.0000     0.      0.00 
  -8  -5  15     10.22    4.83  0. 1.0000     0.      0.00 
  -7  -5  15    100.18    3.92  0. 1.0000     0.      0.00 
  -6  -5  15    211.12    4.41  0. 1.0000     0.      0.00 
  -5  -5  15    449.41    7.85  0. 1.0000     0.      0.00 
  -4  -5  15    174.85    3.79  0. 1.0000     0.      0.00 
  -3  -5  15    861.97   10.05  0. 1.0000     0.      0.00 
  -2  -5  15     36.15    8.38  0. 1.0000     0.      0.00 
  -1  -5  15    138.36   15.45  0. 1.0000     0.      0.00 
   0  -5  15   1157.77   12.52  0. 1.0000     0.      0.00 
   1  -5  15     66.00    2.80  0. 1.0000     0.      0.00 
   2  -5  15     20.38    2.59  0. 1.0000     0.      0.00 
   3  -5  15   1665.46   16.90  0. 1.0000     0.      0.00 
   4  -5  15    145.07    2.89  0. 1.0000     0.      0.00 
   5  -5  15      9.51    2.21  0. 1.0000     0.      0.00 
   6  -5  15    907.85   10.97  0. 1.0000     0.      0.00 
   7  -5  15    182.93    4.55  0. 1.0000     0.      0.00 
   8  -5  15      0.00    6.18  0. 1.0000     0.      0.00 
   9  -5  15     14.97   18.81  0. 1.0000     0.      0.00 
  10  -5  15     26.08   29.79  0. 1.0000     0.      0.00 
  11  -5  15      9.22   13.10  0. 1.0000     0.      0.00 
  12  -5  15     27.61   13.82  0. 1.0000     0.      0.00 
 -11  -4  15     14.37    7.28  0. 1.0000     0.      0.00 
 -10  -4  15     62.03    5.67  0. 1.0000     0.      0.00 
  -9  -4  15     78.82    5.77  0. 1.0000     0.      0.00 
  -8  -4  15     40.22    4.99  0. 1.0000     0.      0.00 
  -7  -4  15    442.83    7.07  0. 1.0000     0.      0.00 
  -6  -4  15      7.83    4.37  0. 1.0000     0.      0.00 
  -5  -4  15    104.62   18.53  0. 1.0000     0.      0.00 
  -4  -4  15    252.30    9.66  0. 1.0000     0.      0.00 
  -3  -4  15    199.02    3.92  0. 1.0000     0.      0.00 
  -2  -4  15    236.53    3.95  0. 1.0000     0.      0.00 
  -1  -4  15    225.47    4.24  0. 1.0000     0.      0.00 
   0  -4  15    320.86    3.94  0. 1.0000     0.      0.00 
   1  -4  15      8.84    1.20  0. 1.0000     0.      0.00 
   2  -4  15    641.80    7.48  0. 1.0000     0.      0.00 
   3  -4  15   1504.73   17.21  0. 1.0000     0.      0.00 
   4  -4  15     46.58    3.82  0. 1.0000     0.      0.00 
   5  -4  15     53.86    4.39  0. 1.0000     0.      0.00 
   6  -4  15    555.29   32.11  0. 1.0000     0.      0.00 
   7  -4  15     85.17   11.97  0. 1.0000     0.      0.00 
   8  -4  15     64.69    5.92  0. 1.0000     0.      0.00 
   9  -4  15    133.23    5.66  0. 1.0000     0.      0.00 
  10  -4  15     39.92    6.20  0. 1.0000     0.      0.00 
  11  -4  15     58.46    5.32  0. 1.0000     0.      0.00 
  12  -4  15     20.69    4.80  0. 1.0000     0.      0.00 
  13  -4  15     91.72   23.31  0. 1.0000     0.      0.00 
 -11  -3  15     18.15    6.76  0. 1.0000     0.      0.00 
 -10  -3  15     39.06    6.74  0. 1.0000     0.      0.00 
  -9  -3  15     25.12   10.20  0. 1.0000     0.      0.00 
  -8  -3  15    405.74   60.93  0. 1.0000     0.      0.00 
  -7  -3  15    749.24   28.01  0. 1.0000     0.      0.00 
  -6  -3  15     37.43    4.06  0. 1.0000     0.      0.00 
  -5  -3  15    132.38    4.02  0. 1.0000     0.      0.00 
  -4  -3  15    552.66    6.41  0. 1.0000     0.      0.00 
  -3  -3  15    284.25    3.65  0. 1.0000     0.      0.00 
  -2  -3  15   1024.99    9.51  0. 1.0000     0.      0.00 
  -1  -3  15   1616.99   15.85  0. 1.0000     0.      0.00 
   0  -3  15    291.66    4.36  0. 1.0000     0.      0.00 
   1  -3  15    139.32    2.64  0. 1.0000     0.      0.00 
   2  -3  15    652.98   11.34  0. 1.0000     0.      0.00 
   3  -3  15    213.22   11.07  0. 1.0000     0.      0.00 
   4  -3  15    377.07   20.21  0. 1.0000     0.      0.00 
   5  -3  15     17.25    3.04  0. 1.0000     0.      0.00 
   6  -3  15    176.21    4.49  0. 1.0000     0.      0.00 
   7  -3  15      8.18    3.10  0. 1.0000     0.      0.00 
   8  -3  15     52.19    3.53  0. 1.0000     0.      0.00 
   9  -3  15     80.59    3.30  0. 1.0000     0.      0.00 
  10  -3  15    348.39   11.27  0. 1.0000     0.      0.00 
  11  -3  15     24.20    6.44  0. 1.0000     0.      0.00 
  12  -3  15      4.55   10.03  0. 1.0000     0.      0.00 
 -12  -2  15    232.26   14.18  0. 1.0000     0.      0.00 
 -11  -2  15     85.90   25.37  0. 1.0000     0.      0.00 
 -10  -2  15     45.62   26.66  0. 1.0000     0.      0.00 
  -9  -2  15     12.15   11.51  0. 1.0000     0.      0.00 
  -8  -2  15    269.92    5.89  0. 1.0000     0.      0.00 
  -7  -2  15     16.25    3.51  0. 1.0000     0.      0.00 
  -6  -2  15    345.62    5.14  0. 1.0000     0.      0.00 
  -5  -2  15     90.26    2.32  0. 1.0000     0.      0.00 
  -4  -2  15    280.43    3.95  0. 1.0000     0.      0.00 
  -3  -2  15    118.78    2.49  0. 1.0000     0.      0.00 
  -2  -2  15    796.90    8.34  0. 1.0000     0.      0.00 
  -1  -2  15     81.93    2.28  0. 1.0000     0.      0.00 
   0  -2  15    839.46   25.81  0. 1.0000     0.      0.00 
   1  -2  15    334.62   16.10  0. 1.0000     0.      0.00 
   2  -2  15     12.35    1.79  0. 1.0000     0.      0.00 
   3  -2  15    660.74   10.75  0. 1.0000     0.      0.00 
   4  -2  15    166.91    3.83  0. 1.0000     0.      0.00 
   5  -2  15      7.09    1.89  0. 1.0000     0.      0.00 
   6  -2  15   1196.40   15.14  0. 1.0000     0.      0.00 
   7  -2  15     10.89    2.60  0. 1.0000     0.      0.00 
   8  -2  15     32.18    3.44  0. 1.0000     0.      0.00 
   9  -2  15    754.45   14.83  0. 1.0000     0.      0.00 
  10  -2  15     43.56   15.38  0. 1.0000     0.      0.00 
  11  -2  15     18.41   16.15  0. 1.0000     0.      0.00 
  12  -2  15     12.42   27.20  0. 1.0000     0.      0.00 
 -12  -1  15    296.91   17.48  0. 1.0000     0.      0.00 
 -11  -1  15     28.98    8.12  0. 1.0000     0.      0.00 
 -10  -1  15     93.77    5.94  0. 1.0000     0.      0.00 
  -9  -1  15    333.28    6.90  0. 1.0000     0.      0.00 
  -8  -1  15     18.05    2.92  0. 1.0000     0.      0.00 
  -7  -1  15    401.47    5.80  0. 1.0000     0.      0.00 
  -6  -1  15    594.50    7.52  0. 1.0000     0.      0.00 
  -5  -1  15      5.56    2.42  0. 1.0000     0.      0.00 
  -4  -1  15   1000.51   12.99  0. 1.0000     0.      0.00 
  -3  -1  15    118.39    6.73  0. 1.0000     0.      0.00 
  -2  -1  15    190.61   12.63  0. 1.0000     0.      0.00 
  -1  -1  15   1323.89   13.07  0. 1.0000     0.      0.00 
   0  -1  15    244.06    4.61  0. 1.0000     0.      0.00 
   1  -1  15    346.83    4.26  0. 1.0000     0.      0.00 
   2  -1  15    555.99    5.48  0. 1.0000     0.      0.00 
   3  -1  15    117.01    4.01  0. 1.0000     0.      0.00 
   4  -1  15     56.32    2.15  0. 1.0000     0.      0.00 
   5  -1  15    915.44   11.33  0. 1.0000     0.      0.00 
   6  -1  15    447.42    8.74  0. 1.0000     0.      0.00 
   7  -1  15     42.45    4.65  0. 1.0000     0.      0.00 
   8  -1  15    137.84   14.72  0. 1.0000     0.      0.00 
  10  -1  15     22.82   13.39  0. 1.0000     0.      0.00 
  11  -1  15     27.60   12.54  0. 1.0000     0.      0.00 
  12  -1  15     22.62    8.21  0. 1.0000     0.      0.00 
 -12   0  15      9.22    6.68  0. 1.0000     0.      0.00 
 -11   0  15     61.02    5.38  0. 1.0000     0.      0.00 
 -10   0  15     18.60    4.93  0. 1.0000     0.      0.00 
  -9   0  15    346.05    6.34  0. 1.0000     0.      0.00 
  -8   0  15     31.61    3.80  0. 1.0000     0.      0.00 
  -7   0  15     66.53    4.30  0. 1.0000     0.      0.00 
  -6   0  15     24.14    6.81  0. 1.0000     0.      0.00 
  -5   0  15    628.10   28.25  0. 1.0000     0.      0.00 
  -4   0  15    449.53    9.19  0. 1.0000     0.      0.00 
  -3   0  15    451.64    5.86  0. 1.0000     0.      0.00 
  -2   0  15    716.17   10.19  0. 1.0000     0.      0.00 
  -1   0  15    606.96    8.85  0. 1.0000     0.      0.00 
   0   0  15      5.48    0.98  0. 1.0000     0.      0.00 
   1   0  15   1134.70   11.68  0. 1.0000     0.      0.00 
   2   0  15   1319.85   14.01  0. 1.0000     0.      0.00 
   3   0  15    177.06    4.07  0. 1.0000     0.      0.00 
   4   0  15   1083.77   13.90  0. 1.0000     0.      0.00 
   5   0  15    144.78   10.83  0. 1.0000     0.      0.00 
   6   0  15      0.00   25.67  0. 1.0000     0.      0.00 
   7   0  15    186.66    7.09  0. 1.0000     0.      0.00 
   8   0  15     28.73    4.23  0. 1.0000     0.      0.00 
   9   0  15     37.78    4.62  0. 1.0000     0.      0.00 
  10   0  15      0.00    5.82  0. 1.0000     0.      0.00 
  11   0  15     14.11    4.43  0. 1.0000     0.      0.00 
  12   0  15     73.53    7.75  0. 1.0000     0.      0.00 
 -12   1  15     67.87    7.14  0. 1.0000     0.      0.00 
 -11   1  15     45.97    7.13  0. 1.0000     0.      0.00 
 -10   1  15      0.00   10.71  0. 1.0000     0.      0.00 
  -9   1  15    606.92   22.33  0. 1.0000     0.      0.00 
  -8   1  15    338.10   14.08  0. 1.0000     0.      0.00 
  -7   1  15     34.49    3.93  0. 1.0000     0.      0.00 
  -6   1  15    972.94   12.65  0. 1.0000     0.      0.00 
  -5   1  15    393.82    7.73  0. 1.0000     0.      0.00 
  -4   1  15    129.59    2.97  0. 1.0000     0.      0.00 
  -3   1  15    925.10    9.38  0. 1.0000     0.      0.00 
  -2   1  15     76.15    2.89  0. 1.0000     0.      0.00 
  -1   1  15    189.25    3.30  0. 1.0000     0.      0.00 
   0   1  15    680.15    7.39  0. 1.0000     0.      0.00 
   1   1  15    294.83    7.62  0. 1.0000     0.      0.00 
   2   1  15     49.94   54.50  0. 1.0000     0.      0.00 
   3   1  15    384.95   49.21  0. 1.0000     0.      0.00 
   4   1  15    202.47    4.03  0. 1.0000     0.      0.00 
   5   1  15     56.06    7.45  0. 1.0000     0.      0.00 
   6   1  15     59.09    3.02  0. 1.0000     0.      0.00 
   7   1  15     91.10    3.18  0. 1.0000     0.      0.00 
   8   1  15     49.38    4.19  0. 1.0000     0.      0.00 
   9   1  15    318.07    8.08  0. 1.0000     0.      0.00 
  10   1  15      5.35    6.99  0. 1.0000     0.      0.00 
  11   1  15     83.69   12.79  0. 1.0000     0.      0.00 
  12   1  15     64.42   17.90  0. 1.0000     0.      0.00 
 -12   2  15      8.89   17.19  0. 1.0000     0.      0.00 
 -11   2  15     19.15   14.63  0. 1.0000     0.      0.00 
 -10   2  15     81.69   12.27  0. 1.0000     0.      0.00 
  -9   2  15    423.29   10.48  0. 1.0000     0.      0.00 
  -8   2  15     22.10    3.48  0. 1.0000     0.      0.00 
  -7   2  15      8.55    2.50  0. 1.0000     0.      0.00 
  -6   2  15    917.82   12.89  0. 1.0000     0.      0.00 
  -5   2  15      4.32    1.93  0. 1.0000     0.      0.00 
  -4   2  15    256.66    4.18  0. 1.0000     0.      0.00 
  -3   2  15   1052.59   14.17  0. 1.0000     0.      0.00 
  -2   2  15     48.66    2.36  0. 1.0000     0.      0.00 
  -1   2  15    239.46   24.34  0. 1.0000     0.      0.00 
   0   2  15    882.66   81.85  0. 1.0000     0.      0.00 
   1   2  15    507.15   10.81  0. 1.0000     0.      0.00 
   2   2  15    665.41    7.89  0. 1.0000     0.      0.00 
   3   2  15    439.09    5.66  0. 1.0000     0.      0.00 
   4   2  15     41.06    2.31  0. 1.0000     0.      0.00 
   5   2  15    288.16   10.40  0. 1.0000     0.      0.00 
   6   2  15     97.27    3.18  0. 1.0000     0.      0.00 
   7   2  15    292.02    5.27  0. 1.0000     0.      0.00 
   8   2  15    326.05    8.90  0. 1.0000     0.      0.00 
   9   2  15    130.33   17.74  0. 1.0000     0.      0.00 
  10   2  15      0.00   24.76  0. 1.0000     0.      0.00 
 -13   3  15    253.89   19.27  0. 1.0000     0.      0.00 
 -12   3  15      8.61    9.49  0. 1.0000     0.      0.00 
 -11   3  15     11.00    6.40  0. 1.0000     0.      0.00 
 -10   3  15    398.59   10.72  0. 1.0000     0.      0.00 
  -9   3  15     69.79    3.50  0. 1.0000     0.      0.00 
  -8   3  15    303.70    4.90  0. 1.0000     0.      0.00 
  -7   3  15    224.40    4.29  0. 1.0000     0.      0.00 
  -6   3  15    245.87    4.73  0. 1.0000     0.      0.00 
  -5   3  15     91.81    4.10  0. 1.0000     0.      0.00 
  -4   3  15    130.43   14.57  0. 1.0000     0.      0.00 
  -3   3  15    168.87   25.44  0. 1.0000     0.      0.00 
  -2   3  15   1139.24   17.18  0. 1.0000     0.      0.00 
  -1   3  15     57.71    2.16  0. 1.0000     0.      0.00 
   0   3  15    163.82    4.01  0. 1.0000     0.      0.00 
   1   3  15      0.00    9.15  0. 1.0000     0.      0.00 
   2   3  15    152.69    3.09  0. 1.0000     0.      0.00 
   3   3  15     45.96    1.88  0. 1.0000     0.      0.00 
   4   3  15    571.79    7.57  0. 1.0000     0.      0.00 
   5   3  15    221.04    7.91  0. 1.0000     0.      0.00 
   6   3  15     13.40    6.06  0. 1.0000     0.      0.00 
   7   3  15    568.87   35.77  0. 1.0000     0.      0.00 
   9   3  15      5.57   14.55  0. 1.0000     0.      0.00 
  10   3  15     42.53   11.19  0. 1.0000     0.      0.00 
  11   3  15     11.17    9.03  0. 1.0000     0.      0.00 
 -13   4  15     41.05    9.64  0. 1.0000     0.      0.00 
 -12   4  15     78.07    5.96  0. 1.0000     0.      0.00 
 -11   4  15     42.15    5.44  0. 1.0000     0.      0.00 
 -10   4  15    152.68    7.89  0. 1.0000     0.      0.00 
  -9   4  15     48.33    5.02  0. 1.0000     0.      0.00 
  -8   4  15     57.98    7.56  0. 1.0000     0.      0.00 
  -7   4  15     15.96   14.73  0. 1.0000     0.      0.00 
  -6   4  15   1002.97   57.99  0. 1.0000     0.      0.00 
  -5   4  15      3.52    3.95  0. 1.0000     0.      0.00 
  -4   4  15     10.65    2.47  0. 1.0000     0.      0.00 
  -3   4  15   1801.43   19.94  0. 1.0000     0.      0.00 
  -2   4  15    396.79    8.43  0. 1.0000     0.      0.00 
  -1   4  15      0.00    1.31  0. 1.0000     0.      0.00 
   0   4  15    693.45    8.44  0. 1.0000     0.      0.00 
   1   4  15      0.00    8.86  0. 1.0000     0.      0.00 
   2   4  15      9.95    2.07  0. 1.0000     0.      0.00 
   3   4  15    921.53   13.34  0. 1.0000     0.      0.00 
   4   4  15     25.64   76.73  0. 1.0000     0.      0.00 
   6   4  15     51.16   12.59  0. 1.0000     0.      0.00 
   7   4  15      3.37    5.47  0. 1.0000     0.      0.00 
   8   4  15      0.00    5.51  0. 1.0000     0.      0.00 
   9   4  15     32.38    6.20  0. 1.0000     0.      0.00 
  10   4  15      7.06    5.96  0. 1.0000     0.      0.00 
 -12   5  15     39.63    9.05  0. 1.0000     0.      0.00 
 -11   5  15     10.34   12.60  0. 1.0000     0.      0.00 
 -10   5  15    413.40   34.53  0. 1.0000     0.      0.00 
  -9   5  15      7.00   13.22  0. 1.0000     0.      0.00 
  -8   5  15     15.46    6.56  0. 1.0000     0.      0.00 
  -7   5  15    710.29   10.69  0. 1.0000     0.      0.00 
  -6   5  15    335.80    5.76  0. 1.0000     0.      0.00 
  -5   5  15    178.65    3.39  0. 1.0000     0.      0.00 
  -4   5  15     29.65    4.74  0. 1.0000     0.      0.00 
  -3   5  15    196.82    3.41  0. 1.0000     0.      0.00 
  -2   5  15      0.00    2.58  0. 1.0000     0.      0.00 
  -1   5  15    207.48    4.76  0. 1.0000     0.      0.00 
   0   5  15    297.30    7.09  0. 1.0000     0.      0.00 
   3   5  15    162.24    7.61  0. 1.0000     0.      0.00 
   4   5  15    110.95    3.61  0. 1.0000     0.      0.00 
   5   5  15    135.48    3.84  0. 1.0000     0.      0.00 
   6   5  15     96.21    3.88  0. 1.0000     0.      0.00 
   7   5  15     18.75    4.87  0. 1.0000     0.      0.00 
   8   5  15     36.62    6.16  0. 1.0000     0.      0.00 
   9   5  15     26.83    8.39  0. 1.0000     0.      0.00 
  10   5  15    139.21   15.51  0. 1.0000     0.      0.00 
 -12   6  15      0.00   16.61  0. 1.0000     0.      0.00 
 -11   6  15    127.58   12.10  0. 1.0000     0.      0.00 
 -10   6  15    332.28   11.15  0. 1.0000     0.      0.00 
  -9   6  15     59.21    6.01  0. 1.0000     0.      0.00 
  -8   6  15    335.04    6.30  0. 1.0000     0.      0.00 
  -7   6  15    482.05    6.61  0. 1.0000     0.      0.00 
  -6   6  15     15.20    2.85  0. 1.0000     0.      0.00 
  -5   6  15    163.87    3.57  0. 1.0000     0.      0.00 
  -4   6  15    538.53   13.36  0. 1.0000     0.      0.00 
  -3   6  15    216.47    5.52  0. 1.0000     0.      0.00 
  -2   6  15    121.39   36.26  0. 1.0000     0.      0.00 
  -1   6  15    427.23   44.49  0. 1.0000     0.      0.00 
   0   6  15    304.53    8.98  0. 1.0000     0.      0.00 
   1   6  15    581.46    8.38  0. 1.0000     0.      0.00 
   2   6  15     56.64    2.97  0. 1.0000     0.      0.00 
   3   6  15      0.00    3.69  0. 1.0000     0.      0.00 
   4   6  15      8.45    2.40  0. 1.0000     0.      0.00 
   5   6  15     60.47    3.73  0. 1.0000     0.      0.00 
   6   6  15    119.65    6.63  0. 1.0000     0.      0.00 
   7   6  15     87.41   12.98  0. 1.0000     0.      0.00 
   8   6  15      0.00   17.45  0. 1.0000     0.      0.00 
   9   6  15      0.00   54.54  0. 1.0000     0.      0.00 
 -12   7  15     87.86    9.12  0. 1.0000     0.      0.00 
 -11   7  15     82.64    6.85  0. 1.0000     0.      0.00 
 -10   7  15     15.39    4.49  0. 1.0000     0.      0.00 
  -9   7  15    139.13    5.26  0. 1.0000     0.      0.00 
  -8   7  15     38.13    5.18  0. 1.0000     0.      0.00 
  -7   7  15    160.79    9.31  0. 1.0000     0.      0.00 
  -6   7  15     18.68    8.06  0. 1.0000     0.      0.00 
  -5   7  15     31.23   17.98  0. 1.0000     0.      0.00 
  -4   7  15     22.49   18.08  0. 1.0000     0.      0.00 
  -3   7  15    851.85   19.04  0. 1.0000     0.      0.00 
  -2   7  15     75.52    3.42  0. 1.0000     0.      0.00 
  -1   7  15     91.36    3.55  0. 1.0000     0.      0.00 
   0   7  15    298.31    6.10  0. 1.0000     0.      0.00 
   1   7  15    184.49    3.39  0. 1.0000     0.      0.00 
   2   7  15      9.05    2.67  0. 1.0000     0.      0.00 
   3   7  15    163.89    5.45  0. 1.0000     0.      0.00 
   4   7  15      0.00    5.28  0. 1.0000     0.      0.00 
   5   7  15      6.24   32.77  0. 1.0000     0.      0.00 
   8   7  15      0.00   42.61  0. 1.0000     0.      0.00 
 -12   8  15    153.66    8.09  0. 1.0000     0.      0.00 
 -11   8  15      7.80    8.48  0. 1.0000     0.      0.00 
 -10   8  15     46.34    9.83  0. 1.0000     0.      0.00 
  -9   8  15     88.01   18.05  0. 1.0000     0.      0.00 
  -7   8  15    403.25   36.12  0. 1.0000     0.      0.00 
  -6   8  15     88.95    8.16  0. 1.0000     0.      0.00 
  -5   8  15    302.96    7.20  0. 1.0000     0.      0.00 
  -4   8  15    750.03   11.21  0. 1.0000     0.      0.00 
  -3   8  15    252.73    4.80  0. 1.0000     0.      0.00 
  -2   8  15      0.00    3.24  0. 1.0000     0.      0.00 
  -1   8  15     29.36    3.17  0. 1.0000     0.      0.00 
   0   8  15     37.51    3.70  0. 1.0000     0.      0.00 
   1   8  15      9.91    4.57  0. 1.0000     0.      0.00 
   2   8  15    224.36   20.89  0. 1.0000     0.      0.00 
   5   8  15      7.02   17.03  0. 1.0000     0.      0.00 
   6   8  15      1.20    9.45  0. 1.0000     0.      0.00 
   7   8  15     11.90    8.81  0. 1.0000     0.      0.00 
 -11   9  15      0.00   31.66  0. 1.0000     0.      0.00 
 -10   9  15      3.08   21.82  0. 1.0000     0.      0.00 
  -9   9  15      0.00   12.36  0. 1.0000     0.      0.00 
  -8   9  15    325.29   10.94  0. 1.0000     0.      0.00 
  -7   9  15     91.22    7.53  0. 1.0000     0.      0.00 
  -6   9  15     77.96    5.88  0. 1.0000     0.      0.00 
  -5   9  15    264.19    4.90  0. 1.0000     0.      0.00 
  -4   9  15    156.13    4.82  0. 1.0000     0.      0.00 
  -3   9  15      9.85    3.68  0. 1.0000     0.      0.00 
  -2   9  15     58.15    5.36  0. 1.0000     0.      0.00 
  -1   9  15    156.19   15.54  0. 1.0000     0.      0.00 
   2   9  15      0.00   17.90  0. 1.0000     0.      0.00 
   3   9  15     24.84    9.93  0. 1.0000     0.      0.00 
   4   9  15    135.71    8.13  0. 1.0000     0.      0.00 
   5   9  15     11.35    6.62  0. 1.0000     0.      0.00 
   6   9  15      4.81    7.10  0. 1.0000     0.      0.00 
 -10  10  15     14.04    9.52  0. 1.0000     0.      0.00 
  -9  10  15    399.52    8.10  0. 1.0000     0.      0.00 
  -8  10  15    131.64    4.82  0. 1.0000     0.      0.00 
  -7  10  15      5.99    5.06  0. 1.0000     0.      0.00 
  -6  10  15     45.82    6.24  0. 1.0000     0.      0.00 
  -5  10  15      4.26   10.62  0. 1.0000     0.      0.00 
  -4  10  15     40.07   21.66  0. 1.0000     0.      0.00 
  -3  10  15    146.14   52.12  0. 1.0000     0.      0.00 
  -1  10  15    109.15   17.15  0. 1.0000     0.      0.00 
   0  10  15    198.22   15.58  0. 1.0000     0.      0.00 
   1  10  15      6.30    6.53  0. 1.0000     0.      0.00 
   2  10  15     42.31    4.99  0. 1.0000     0.      0.00 
   3  10  15     30.48    4.99  0. 1.0000     0.      0.00 
   4  10  15     37.25    6.79  0. 1.0000     0.      0.00 
   5  10  15      5.54   10.24  0. 1.0000     0.      0.00 
  -9  11  15     99.81   12.40  0. 1.0000     0.      0.00 
  -8  11  15      8.90   17.11  0. 1.0000     0.      0.00 
  -7  11  15      9.02   19.46  0. 1.0000     0.      0.00 
  -6  11  15     35.74   40.77  0. 1.0000     0.      0.00 
  -4  11  15     18.22   14.41  0. 1.0000     0.      0.00 
  -3  11  15     78.76   10.93  0. 1.0000     0.      0.00 
  -2  11  15    214.56    7.77  0. 1.0000     0.      0.00 
  -1  11  15    152.46    5.30  0. 1.0000     0.      0.00 
   0  11  15     99.63    4.52  0. 1.0000     0.      0.00 
   1  11  15      5.99    5.10  0. 1.0000     0.      0.00 
   2  11  15     11.96    8.24  0. 1.0000     0.      0.00 
   3  11  15     28.68   13.18  0. 1.0000     0.      0.00 
   4  11  15     32.97   23.94  0. 1.0000     0.      0.00 
  -8  12  15      0.00   28.21  0. 1.0000     0.      0.00 
  -7  12  15     16.31   15.27  0. 1.0000     0.      0.00 
  -6  12  15     78.52   12.00  0. 1.0000     0.      0.00 
  -5  12  15    243.79   11.03  0. 1.0000     0.      0.00 
  -4  12  15      0.00    5.51  0. 1.0000     0.      0.00 
  -3  12  15      9.83    4.53  0. 1.0000     0.      0.00 
  -2  12  15     21.87    5.32  0. 1.0000     0.      0.00 
  -1  12  15     53.12    8.13  0. 1.0000     0.      0.00 
   0  12  15      8.22   14.47  0. 1.0000     0.      0.00 
   1  12  15     19.42   49.66  0. 1.0000     0.      0.00 
  -6  13  15    172.98    8.02  0. 1.0000     0.      0.00 
  -5  13  15     49.85    7.09  0. 1.0000     0.      0.00 
  -4  13  15     16.74   11.46  0. 1.0000     0.      0.00 
  -3  13  15      3.64   25.97  0. 1.0000     0.      0.00 
  -2  13  15      0.00   39.84  0. 1.0000     0.      0.00 
  -1  13  15     15.50   28.91  0. 1.0000     0.      0.00 
  -1 -13  16    186.16   14.11  0. 1.0000     0.      0.00 
   0 -13  16      0.00   29.04  0. 1.0000     0.      0.00 
   1 -13  16     14.62   36.72  0. 1.0000     0.      0.00 
   2 -13  16    172.40   15.86  0. 1.0000     0.      0.00 
   3 -13  16     15.30    8.12  0. 1.0000     0.      0.00 
   4 -13  16     24.97    6.71  0. 1.0000     0.      0.00 
   5 -13  16    291.17    7.82  0. 1.0000     0.      0.00 
   6 -13  16     26.11    5.70  0. 1.0000     0.      0.00 
   7 -13  16     15.81    7.82  0. 1.0000     0.      0.00 
  -3 -12  16     94.92   40.79  0. 1.0000     0.      0.00 
  -2 -12  16    304.88   41.64  0. 1.0000     0.      0.00 
  -1 -12  16     31.68   17.22  0. 1.0000     0.      0.00 
   0 -12  16      7.26    7.67  0. 1.0000     0.      0.00 
   1 -12  16     25.64    5.85  0. 1.0000     0.      0.00 
   2 -12  16    551.27    9.36  0. 1.0000     0.      0.00 
   3 -12  16      0.00    4.29  0. 1.0000     0.      0.00 
   4 -12  16    149.66    6.15  0. 1.0000     0.      0.00 
   5 -12  16    125.82    7.17  0. 1.0000     0.      0.00 
   6 -12  16     65.57    9.20  0. 1.0000     0.      0.00 
   7 -12  16     51.48   14.12  0. 1.0000     0.      0.00 
   8 -12  16     33.21   18.71  0. 1.0000     0.      0.00 
   9 -12  16      0.00   44.64  0. 1.0000     0.      0.00 
  -5 -11  16     31.43   96.47  0. 1.0000     0.      0.00 
  -4 -11  16     24.39   18.85  0. 1.0000     0.      0.00 
  -3 -11  16     11.58    9.43  0. 1.0000     0.      0.00 
  -2 -11  16    331.25    9.38  0. 1.0000     0.      0.00 
  -1 -11  16    111.02    6.16  0. 1.0000     0.      0.00 
   0 -11  16    133.89    5.20  0. 1.0000     0.      0.00 
   1 -11  16    109.69    6.42  0. 1.0000     0.      0.00 
   2 -11  16    444.47    9.98  0. 1.0000     0.      0.00 
   3 -11  16      7.79    7.37  0. 1.0000     0.      0.00 
   4 -11  16     32.90   11.26  0. 1.0000     0.      0.00 
   5 -11  16    163.45   20.12  0. 1.0000     0.      0.00 
   6 -11  16      0.00   25.36  0. 1.0000     0.      0.00 
   7 -11  16     37.04   11.41  0. 1.0000     0.      0.00 
   8 -11  16    410.23   10.82  0. 1.0000     0.      0.00 
   9 -11  16      9.02    7.70  0. 1.0000     0.      0.00 
  10 -11  16     30.46    7.05  0. 1.0000     0.      0.00 
  -6 -10  16    228.93   12.82  0. 1.0000     0.      0.00 
  -5 -10  16     37.08    8.81  0. 1.0000     0.      0.00 
  -4 -10  16     21.20    6.68  0. 1.0000     0.      0.00 
  -3 -10  16     36.37    5.04  0. 1.0000     0.      0.00 
  -2 -10  16    539.73    9.73  0. 1.0000     0.      0.00 
  -1 -10  16     52.88    5.50  0. 1.0000     0.      0.00 
   0 -10  16    459.30    8.97  0. 1.0000     0.      0.00 
   1 -10  16    108.96    8.45  0. 1.0000     0.      0.00 
   2 -10  16      0.00   11.38  0. 1.0000     0.      0.00 
   3 -10  16     20.83   19.95  0. 1.0000     0.      0.00 
   4 -10  16    117.11    9.62  0. 1.0000     0.      0.00 
   5 -10  16    811.35   19.11  0. 1.0000     0.      0.00 
   6 -10  16     39.77    5.81  0. 1.0000     0.      0.00 
   7 -10  16     19.95    4.57  0. 1.0000     0.      0.00 
   8 -10  16    304.07    6.90  0. 1.0000     0.      0.00 
   9 -10  16     83.28    6.60  0. 1.0000     0.      0.00 
  10 -10  16     39.95    8.07  0. 1.0000     0.      0.00 
  11 -10  16     83.65   15.73  0. 1.0000     0.      0.00 
  -7  -9  16     80.58    9.15  0. 1.0000     0.      0.00 
  -6  -9  16      9.91    6.47  0. 1.0000     0.      0.00 
  -5  -9  16    171.18    7.53  0. 1.0000     0.      0.00 
  -4  -9  16    202.37    8.34  0. 1.0000     0.      0.00 
  -3  -9  16    384.46    9.74  0. 1.0000     0.      0.00 
  -2  -9  16    158.49    8.84  0. 1.0000     0.      0.00 
  -1  -9  16      0.00   14.34  0. 1.0000     0.      0.00 
   0  -9  16      0.00   14.91  0. 1.0000     0.      0.00 
   1  -9  16   1134.07   16.02  0. 1.0000     0.      0.00 
   2  -9  16    300.77    5.66  0. 1.0000     0.      0.00 
   3  -9  16     37.17    3.79  0. 1.0000     0.      0.00 
   4  -9  16    485.55    6.72  0. 1.0000     0.      0.00 
   5  -9  16    857.87   10.84  0. 1.0000     0.      0.00 
   6  -9  16      7.53    4.00  0. 1.0000     0.      0.00 
   7  -9  16    113.79    8.07  0. 1.0000     0.      0.00 
   8  -9  16      0.48    7.76  0. 1.0000     0.      0.00 
   9  -9  16     19.36   11.96  0. 1.0000     0.      0.00 
  10  -9  16      3.64   16.81  0. 1.0000     0.      0.00 
  11  -9  16    298.06   66.12  0. 1.0000     0.      0.00 
  -8  -8  16     21.79    8.79  0. 1.0000     0.      0.00 
  -7  -8  16    348.30   10.50  0. 1.0000     0.      0.00 
  -6  -8  16      0.00    7.93  0. 1.0000     0.      0.00 
  -5  -8  16    145.67    9.90  0. 1.0000     0.      0.00 
  -4  -8  16     60.10   26.81  0. 1.0000     0.      0.00 
  -3  -8  16    831.70   36.46  0. 1.0000     0.      0.00 
  -2  -8  16     73.65    5.50  0. 1.0000     0.      0.00 
  -1  -8  16     47.03    3.90  0. 1.0000     0.      0.00 
   0  -8  16    121.24    3.82  0. 1.0000     0.      0.00 
   1  -8  16   1459.87   15.31  0. 1.0000     0.      0.00 
   2  -8  16     33.76    2.63  0. 1.0000     0.      0.00 
   3  -8  16    413.40    5.91  0. 1.0000     0.      0.00 
   4  -8  16      8.08    3.46  0. 1.0000     0.      0.00 
   5  -8  16     48.04    4.16  0. 1.0000     0.      0.00 
   6  -8  16    123.87    6.67  0. 1.0000     0.      0.00 
   7  -8  16    177.94   14.01  0. 1.0000     0.      0.00 
   9  -8  16     36.29   11.38  0. 1.0000     0.      0.00 
  10  -8  16      2.89    8.24  0. 1.0000     0.      0.00 
  11  -8  16    449.99   11.19  0. 1.0000     0.      0.00 
  12  -8  16     41.82    7.94  0. 1.0000     0.      0.00 
  -9  -7  16     31.76   10.81  0. 1.0000     0.      0.00 
  -8  -7  16      0.00   13.52  0. 1.0000     0.      0.00 
  -7  -7  16    850.84   71.37  0. 1.0000     0.      0.00 
  -6  -7  16     46.96   36.97  0. 1.0000     0.      0.00 
  -5  -7  16     10.53    9.04  0. 1.0000     0.      0.00 
  -4  -7  16    366.05    7.66  0. 1.0000     0.      0.00 
  -3  -7  16    119.29    4.08  0. 1.0000     0.      0.00 
  -2  -7  16    270.03    4.25  0. 1.0000     0.      0.00 
  -1  -7  16    218.10    3.68  0. 1.0000     0.      0.00 
   0  -7  16    208.83    3.96  0. 1.0000     0.      0.00 
   1  -7  16    949.99   11.59  0. 1.0000     0.      0.00 
   2  -7  16     15.31    3.08  0. 1.0000     0.      0.00 
   3  -7  16     77.19    4.58  0. 1.0000     0.      0.00 
   4  -7  16   1151.43   35.84  0. 1.0000     0.      0.00 
   5  -7  16    136.86   20.20  0. 1.0000     0.      0.00 
   6  -7  16     66.04    5.49  0. 1.0000     0.      0.00 
   7  -7  16    864.54   12.68  0. 1.0000     0.      0.00 
   8  -7  16    579.65    8.96  0. 1.0000     0.      0.00 
   9  -7  16      0.00    4.84  0. 1.0000     0.      0.00 
  10  -7  16     37.83    4.28  0. 1.0000     0.      0.00 
  11  -7  16      8.59    6.03  0. 1.0000     0.      0.00 
  12  -7  16     49.00    9.18  0. 1.0000     0.      0.00 
  -9  -6  16     74.12   28.38  0. 1.0000     0.      0.00 
  -8  -6  16    264.79   12.50  0. 1.0000     0.      0.00 
  -7  -6  16     27.08    7.84  0. 1.0000     0.      0.00 
  -6  -6  16      8.42    5.24  0. 1.0000     0.      0.00 
  -5  -6  16     10.20    3.36  0. 1.0000     0.      0.00 
  -4  -6  16   1158.67   12.98  0. 1.0000     0.      0.00 
  -3  -6  16    120.39    3.35  0. 1.0000     0.      0.00 
  -2  -6  16    288.48    4.94  0. 1.0000     0.      0.00 
  -1  -6  16    705.51    9.44  0. 1.0000     0.      0.00 
   0  -6  16    745.94    9.57  0. 1.0000     0.      0.00 
   1  -6  16      0.00   21.04  0. 1.0000     0.      0.00 
   2  -6  16      7.00   13.23  0. 1.0000     0.      0.00 
   3  -6  16     32.87    4.38  0. 1.0000     0.      0.00 
   4  -6  16   2170.92   26.30  0. 1.0000     0.      0.00 
   5  -6  16     11.97    3.11  0. 1.0000     0.      0.00 
   6  -6  16    103.06    3.15  0. 1.0000     0.      0.00 
   7  -6  16    256.35    5.66  0. 1.0000     0.      0.00 
   8  -6  16    278.23    5.90  0. 1.0000     0.      0.00 
   9  -6  16    151.58    7.09  0. 1.0000     0.      0.00 
  10  -6  16    140.97    9.94  0. 1.0000     0.      0.00 
  11  -6  16    119.56   10.91  0. 1.0000     0.      0.00 
  12  -6  16     19.65   23.09  0. 1.0000     0.      0.00 
 -10  -5  16      6.62    9.50  0. 1.0000     0.      0.00 
  -9  -5  16      7.19    6.94  0. 1.0000     0.      0.00 
  -8  -5  16    510.21    9.93  0. 1.0000     0.      0.00 
  -7  -5  16    271.71    6.02  0. 1.0000     0.      0.00 
  -6  -5  16     17.39    3.41  0. 1.0000     0.      0.00 
  -5  -5  16     89.12    3.43  0. 1.0000     0.      0.00 
  -4  -5  16   1852.53   19.41  0. 1.0000     0.      0.00 
  -3  -5  16     47.73    5.45  0. 1.0000     0.      0.00 
  -2  -5  16    135.25    9.61  0. 1.0000     0.      0.00 
  -1  -5  16    288.27   28.56  0. 1.0000     0.      0.00 
   0  -5  16    436.94    7.01  0. 1.0000     0.      0.00 
   1  -5  16    508.50    7.16  0. 1.0000     0.      0.00 
   2  -5  16    359.32    5.11  0. 1.0000     0.      0.00 
   3  -5  16     55.37    2.70  0. 1.0000     0.      0.00 
   4  -5  16   1337.39   13.45  0. 1.0000     0.      0.00 
   5  -5  16     17.23    2.65  0. 1.0000     0.      0.00 
   6  -5  16    122.85    4.40  0. 1.0000     0.      0.00 
   7  -5  16    430.53    8.71  0. 1.0000     0.      0.00 
   8  -5  16      6.34    5.52  0. 1.0000     0.      0.00 
  10  -5  16    413.24   39.74  0. 1.0000     0.      0.00 
  11  -5  16    170.53   15.00  0. 1.0000     0.      0.00 
  12  -5  16     12.55   13.93  0. 1.0000     0.      0.00 
 -11  -4  16     59.69    6.53  0. 1.0000     0.      0.00 
 -10  -4  16     29.97    5.82  0. 1.0000     0.      0.00 
  -9  -4  16     20.29    5.91  0. 1.0000     0.      0.00 
  -8  -4  16    444.84    8.76  0. 1.0000     0.      0.00 
  -7  -4  16    192.53    5.92  0. 1.0000     0.      0.00 
  -6  -4  16    435.17    6.98  0. 1.0000     0.      0.00 
  -5  -4  16     65.26   13.81  0. 1.0000     0.      0.00 
  -4  -4  16    221.34   11.50  0. 1.0000     0.      0.00 
  -3  -4  16     50.16    4.44  0. 1.0000     0.      0.00 
  -2  -4  16      8.30    2.38  0. 1.0000     0.      0.00 
  -1  -4  16   2990.59   29.30  0. 1.0000     0.      0.00 
   0  -4  16    328.91    5.56  0. 1.0000     0.      0.00 
   1  -4  16     42.38    1.48  0. 1.0000     0.      0.00 
   2  -4  16   1283.28   14.83  0. 1.0000     0.      0.00 
   3  -4  16    470.73   10.93  0. 1.0000     0.      0.00 
   4  -4  16     21.07    2.50  0. 1.0000     0.      0.00 
   5  -4  16    219.72    4.74  0. 1.0000     0.      0.00 
   6  -4  16    167.14   16.93  0. 1.0000     0.      0.00 
   7  -4  16   1028.71   67.71  0. 1.0000     0.      0.00 
   8  -4  16      0.00    6.08  0. 1.0000     0.      0.00 
   9  -4  16     27.36    6.00  0. 1.0000     0.      0.00 
  10  -4  16    411.58    9.99  0. 1.0000     0.      0.00 
  11  -4  16    159.71    7.64  0. 1.0000     0.      0.00 
  12  -4  16     82.74    5.29  0. 1.0000     0.      0.00 
 -11  -3  16    162.09    7.63  0. 1.0000     0.      0.00 
 -10  -3  16     12.89    6.87  0. 1.0000     0.      0.00 
  -9  -3  16    160.39   13.21  0. 1.0000     0.      0.00 
  -8  -3  16    451.96   29.45  0. 1.0000     0.      0.00 
  -7  -3  16     28.26    7.01  0. 1.0000     0.      0.00 
  -6  -3  16     86.88    4.80  0. 1.0000     0.      0.00 
  -5  -3  16   1553.42   17.90  0. 1.0000     0.      0.00 
  -4  -3  16    451.80    7.22  0. 1.0000     0.      0.00 
  -3  -3  16     16.14    1.75  0. 1.0000     0.      0.00 
  -2  -3  16    359.11    4.44  0. 1.0000     0.      0.00 
  -1  -3  16   3233.52   30.89  0. 1.0000     0.      0.00 
   0  -3  16    474.17    5.77  0. 1.0000     0.      0.00 
   1  -3  16     47.84    2.20  0. 1.0000     0.      0.00 
   2  -3  16     25.84    5.35  0. 1.0000     0.      0.00 
   3  -3  16   1076.68   39.94  0. 1.0000     0.      0.00 
   4  -3  16    353.89   19.20  0. 1.0000     0.      0.00 
   5  -3  16    475.34    7.71  0. 1.0000     0.      0.00 
   6  -3  16      6.32    3.18  0. 1.0000     0.      0.00 
   7  -3  16    824.38   13.95  0. 1.0000     0.      0.00 
   8  -3  16      8.74    2.93  0. 1.0000     0.      0.00 
   9  -3  16    108.97    3.80  0. 1.0000     0.      0.00 
  10  -3  16     33.42    4.99  0. 1.0000     0.      0.00 
  11  -3  16     37.15    7.82  0. 1.0000     0.      0.00 
  12  -3  16     54.96   11.10  0. 1.0000     0.      0.00 
 -11  -2  16     70.64   29.21  0. 1.0000     0.      0.00 
 -10  -2  16    100.29   14.15  0. 1.0000     0.      0.00 
  -9  -2  16    589.12   17.25  0. 1.0000     0.      0.00 
  -8  -2  16     26.50    5.12  0. 1.0000     0.      0.00 
  -7  -2  16     85.55    4.32  0. 1.0000     0.      0.00 
  -6  -2  16    110.68    3.37  0. 1.0000     0.      0.00 
  -5  -2  16   2430.12   24.16  0. 1.0000     0.      0.00 
  -4  -2  16    291.49    4.08  0. 1.0000     0.      0.00 
  -3  -2  16    264.70    4.78  0. 1.0000     0.      0.00 
  -2  -2  16    232.71    5.15  0. 1.0000     0.      0.00 
  -1  -2  16   1403.30   16.05  0. 1.0000     0.      0.00 
   0  -2  16    196.97    8.78  0. 1.0000     0.      0.00 
   1  -2  16    226.55    8.01  0. 1.0000     0.      0.00 
   2  -2  16   2903.81   38.78  0. 1.0000     0.      0.00 
   3  -2  16    491.02    6.46  0. 1.0000     0.      0.00 
   4  -2  16     13.47    3.04  0. 1.0000     0.      0.00 
   5  -2  16   1159.38   14.23  0. 1.0000     0.      0.00 
   6  -2  16     62.17    2.93  0. 1.0000     0.      0.00 
   7  -2  16    103.42    6.03  0. 1.0000     0.      0.00 
   8  -2  16    189.93    4.47  0. 1.0000     0.      0.00 
   9  -2  16     17.76    5.89  0. 1.0000     0.      0.00 
  10  -2  16    410.88   18.64  0. 1.0000     0.      0.00 
  11  -2  16     28.63   21.11  0. 1.0000     0.      0.00 
  12  -2  16      0.00   33.28  0. 1.0000     0.      0.00 
 -12  -1  16      0.00   15.07  0. 1.0000     0.      0.00 
 -11  -1  16     50.43    8.62  0. 1.0000     0.      0.00 
 -10  -1  16     25.15    5.65  0. 1.0000     0.      0.00 
  -9  -1  16    231.63    8.24  0. 1.0000     0.      0.00 
  -8  -1  16    542.16    7.39  0. 1.0000     0.      0.00 
  -7  -1  16      0.69    2.72  0. 1.0000     0.      0.00 
  -6  -1  16    145.09    3.71  0. 1.0000     0.      0.00 
  -5  -1  16   1937.46   21.04  0. 1.0000     0.      0.00 
  -4  -1  16     33.80    2.97  0. 1.0000     0.      0.00 
  -3  -1  16    190.63    8.73  0. 1.0000     0.      0.00 
  -2  -1  16   2020.26   38.46  0. 1.0000     0.      0.00 
  -1  -1  16     93.27    3.38  0. 1.0000     0.      0.00 
   0  -1  16    170.94    2.78  0. 1.0000     0.      0.00 
   1  -1  16    699.86    6.85  0. 1.0000     0.      0.00 
   2  -1  16   2812.25   36.02  0. 1.0000     0.      0.00 
   3  -1  16    259.11    3.31  0. 1.0000     0.      0.00 
   4  -1  16     47.56    1.83  0. 1.0000     0.      0.00 
   5  -1  16    123.21    5.25  0. 1.0000     0.      0.00 
   6  -1  16    923.18   12.89  0. 1.0000     0.      0.00 
   7  -1  16     30.44    5.03  0. 1.0000     0.      0.00 
   8  -1  16    261.85   22.29  0. 1.0000     0.      0.00 
   9  -1  16     26.69   34.28  0. 1.0000     0.      0.00 
  10  -1  16    201.00   13.92  0. 1.0000     0.      0.00 
  11  -1  16     25.32   12.50  0. 1.0000     0.      0.00 
  12  -1  16     29.77    9.65  0. 1.0000     0.      0.00 
 -12   0  16     26.33    7.04  0. 1.0000     0.      0.00 
 -11   0  16     15.10    5.37  0. 1.0000     0.      0.00 
 -10   0  16    325.57    6.79  0. 1.0000     0.      0.00 
  -9   0  16     12.67    4.48  0. 1.0000     0.      0.00 
  -8   0  16    262.90    5.88  0. 1.0000     0.      0.00 
  -7   0  16    457.65    8.48  0. 1.0000     0.      0.00 
  -6   0  16    599.21   15.84  0. 1.0000     0.      0.00 
  -5   0  16     29.41    6.53  0. 1.0000     0.      0.00 
  -4   0  16      6.82    2.78  0. 1.0000     0.      0.00 
  -3   0  16     99.22    2.49  0. 1.0000     0.      0.00 
  -2   0  16   4066.30   43.75  0. 1.0000     0.      0.00 
  -1   0  16    313.97    5.95  0. 1.0000     0.      0.00 
   0   0  16     37.65    1.33  0. 1.0000     0.      0.00 
   1   0  16   1041.02   10.26  0. 1.0000     0.      0.00 
   2   0  16   1972.01   29.81  0. 1.0000     0.      0.00 
   3   0  16     19.63    2.19  0. 1.0000     0.      0.00 
   4   0  16    115.28    3.25  0. 1.0000     0.      0.00 
   5   0  16    880.88   34.01  0. 1.0000     0.      0.00 
   6   0  16    656.58   40.25  0. 1.0000     0.      0.00 
   7   0  16      7.50    5.88  0. 1.0000     0.      0.00 
   8   0  16    365.66    7.48  0. 1.0000     0.      0.00 
   9   0  16      0.00    7.32  0. 1.0000     0.      0.00 
  10   0  16     27.72    4.95  0. 1.0000     0.      0.00 
  11   0  16     62.30    4.90  0. 1.0000     0.      0.00 
  12   0  16     66.12    8.01  0. 1.0000     0.      0.00 
 -12   1  16     25.55    6.99  0. 1.0000     0.      0.00 
 -11   1  16      4.45    7.10  0. 1.0000     0.      0.00 
 -10   1  16    485.64   13.84  0. 1.0000     0.      0.00 
  -9   1  16     14.15   15.48  0. 1.0000     0.      0.00 
  -8   1  16    149.68   12.52  0. 1.0000     0.      0.00 
  -7   1  16      4.15    3.80  0. 1.0000     0.      0.00 
  -6   1  16    743.73   11.77  0. 1.0000     0.      0.00 
  -5   1  16    930.65   11.16  0. 1.0000     0.      0.00 
  -4   1  16     17.69    2.06  0. 1.0000     0.      0.00 
  -3   1  16     71.67    2.48  0. 1.0000     0.      0.00 
  -2   1  16   3989.62   44.35  0. 1.0000     0.      0.00 
  -1   1  16     14.44    2.82  0. 1.0000     0.      0.00 
   0   1  16    115.41    2.56  0. 1.0000     0.      0.00 
   1   1  16    449.74    6.50  0. 1.0000     0.      0.00 
   3   1  16    397.74   71.32  0. 1.0000     0.      0.00 
   4   1  16    471.95    9.93  0. 1.0000     0.      0.00 
   5   1  16   1049.16   13.11  0. 1.0000     0.      0.00 
   6   1  16    122.58    3.48  0. 1.0000     0.      0.00 
   7   1  16     67.40    3.34  0. 1.0000     0.      0.00 
   8   1  16    248.66    4.99  0. 1.0000     0.      0.00 
   9   1  16    291.40    9.90  0. 1.0000     0.      0.00 
  10   1  16      0.00    7.39  0. 1.0000     0.      0.00 
  11   1  16     91.32   12.47  0. 1.0000     0.      0.00 
 -12   2  16     86.26   17.23  0. 1.0000     0.      0.00 
 -11   2  16      0.00   14.98  0. 1.0000     0.      0.00 
 -10   2  16    280.48   13.65  0. 1.0000     0.      0.00 
  -9   2  16     23.19    5.65  0. 1.0000     0.      0.00 
  -8   2  16      5.71    3.64  0. 1.0000     0.      0.00 
  -7   2  16   1077.97   12.69  0. 1.0000     0.      0.00 
  -6   2  16    274.18    4.10  0. 1.0000     0.      0.00 
  -5   2  16    341.26    7.36  0. 1.0000     0.      0.00 
  -4   2  16    472.77    5.95  0. 1.0000     0.      0.00 
  -3   2  16    215.83    5.19  0. 1.0000     0.      0.00 
  -2   2  16    746.63   21.08  0. 1.0000     0.      0.00 
  -1   2  16     63.89   26.11  0. 1.0000     0.      0.00 
   1   2  16   4012.45   53.50  0. 1.0000     0.      0.00 
   2   2  16      5.43    2.81  0. 1.0000     0.      0.00 
   3   2  16      9.31    2.61  0. 1.0000     0.      0.00 
   4   2  16   1031.33   13.20  0. 1.0000     0.      0.00 
   5   2  16    646.27    9.49  0. 1.0000     0.      0.00 
   6   2  16     20.03    2.77  0. 1.0000     0.      0.00 
   7   2  16     55.63    3.52  0. 1.0000     0.      0.00 
   8   2  16     32.17    6.70  0. 1.0000     0.      0.00 
   9   2  16    342.64   18.62  0. 1.0000     0.      0.00 
  10   2  16      0.00   32.34  0. 1.0000     0.      0.00 
 -12   3  16    104.47   10.30  0. 1.0000     0.      0.00 
 -11   3  16    199.25    8.04  0. 1.0000     0.      0.00 
 -10   3  16     43.05    5.98  0. 1.0000     0.      0.00 
  -9   3  16    111.21    4.10  0. 1.0000     0.      0.00 
  -8   3  16      5.41    2.91  0. 1.0000     0.      0.00 
  -7   3  16   1239.62   16.86  0. 1.0000     0.      0.00 
  -6   3  16    145.44    3.71  0. 1.0000     0.      0.00 
  -5   3  16     37.92    5.33  0. 1.0000     0.      0.00 
  -4   3  16     45.11   18.11  0. 1.0000     0.      0.00 
  -3   3  16   1447.60   62.01  0. 1.0000     0.      0.00 
  -2   3  16    497.25   12.64  0. 1.0000     0.      0.00 
  -1   3  16    327.54    4.57  0. 1.0000     0.      0.00 
   0   3  16      0.00    4.36  0. 1.0000     0.      0.00 
   1   3  16   2183.82   21.20  0. 1.0000     0.      0.00 
   2   3  16     28.69    1.41  0. 1.0000     0.      0.00 
   3   3  16     11.15    1.85  0. 1.0000     0.      0.00 
   4   3  16      0.00    3.19  0. 1.0000     0.      0.00 
   5   3  16    581.10    7.78  0. 1.0000     0.      0.00 
   6   3  16    221.02   10.42  0. 1.0000     0.      0.00 
   7   3  16    104.09   32.21  0. 1.0000     0.      0.00 
   9   3  16    111.48   15.88  0. 1.0000     0.      0.00 
  10   3  16     39.26   11.47  0. 1.0000     0.      0.00 
  11   3  16     69.32    9.87  0. 1.0000     0.      0.00 
 -12   4  16      2.26    6.11  0. 1.0000     0.      0.00 
 -11   4  16    602.03   10.51  0. 1.0000     0.      0.00 
 -10   4  16    375.93   10.78  0. 1.0000     0.      0.00 
  -9   4  16     28.90    5.63  0. 1.0000     0.      0.00 
  -8   4  16    102.61    7.62  0. 1.0000     0.      0.00 
  -7   4  16    929.51   41.78  0. 1.0000     0.      0.00 
  -6   4  16     12.06   24.20  0. 1.0000     0.      0.00 
  -5   4  16     81.18    5.00  0. 1.0000     0.      0.00 
  -4   4  16   1105.36   14.20  0. 1.0000     0.      0.00 
  -3   4  16    635.56    9.02  0. 1.0000     0.      0.00 
  -2   4  16    248.81    3.82  0. 1.0000     0.      0.00 
  -1   4  16    432.02    5.81  0. 1.0000     0.      0.00 
   0   4  16      0.00    4.35  0. 1.0000     0.      0.00 
   1   4  16    785.46   10.30  0. 1.0000     0.      0.00 
   2   4  16     25.65    2.90  0. 1.0000     0.      0.00 
   3   4  16     10.28    5.05  0. 1.0000     0.      0.00 
   6   4  16      3.14   11.44  0. 1.0000     0.      0.00 
   7   4  16    190.58    9.19  0. 1.0000     0.      0.00 
   8   4  16    136.51    6.44  0. 1.0000     0.      0.00 
   9   4  16      7.37    6.02  0. 1.0000     0.      0.00 
  10   4  16     15.08    6.37  0. 1.0000     0.      0.00 
 -12   5  16      9.22    9.94  0. 1.0000     0.      0.00 
 -11   5  16    305.70   16.45  0. 1.0000     0.      0.00 
 -10   5  16     91.65   24.30  0. 1.0000     0.      0.00 
  -9   5  16    192.85   52.10  0. 1.0000     0.      0.00 
  -8   5  16     89.74    7.52  0. 1.0000     0.      0.00 
  -7   5  16      4.23    4.09  0. 1.0000     0.      0.00 
  -6   5  16    260.77    4.82  0. 1.0000     0.      0.00 
  -5   5  16    118.02    3.79  0. 1.0000     0.      0.00 
  -4   5  16   1581.80   15.79  0. 1.0000     0.      0.00 
  -3   5  16    330.06    8.94  0. 1.0000     0.      0.00 
  -2   5  16     17.63    2.33  0. 1.0000     0.      0.00 
  -1   5  16    179.48    3.90  0. 1.0000     0.      0.00 
   0   5  16    815.40   19.72  0. 1.0000     0.      0.00 
   3   5  16     22.99    7.86  0. 1.0000     0.      0.00 
   4   5  16    938.83   12.10  0. 1.0000     0.      0.00 
   5   5  16     30.15    3.52  0. 1.0000     0.      0.00 
   6   5  16      8.42    4.09  0. 1.0000     0.      0.00 
   7   5  16     53.49    4.65  0. 1.0000     0.      0.00 
   8   5  16    185.92    7.84  0. 1.0000     0.      0.00 
   9   5  16     85.09    9.80  0. 1.0000     0.      0.00 
  10   5  16     63.55   21.61  0. 1.0000     0.      0.00 
 -12   6  16     24.48   20.20  0. 1.0000     0.      0.00 
 -11   6  16     18.32   11.51  0. 1.0000     0.      0.00 
 -10   6  16     17.54    8.71  0. 1.0000     0.      0.00 
  -9   6  16      0.00    6.62  0. 1.0000     0.      0.00 
  -8   6  16   1069.14   13.51  0. 1.0000     0.      0.00 
  -7   6  16    326.77    5.85  0. 1.0000     0.      0.00 
  -6   6  16     82.37    3.61  0. 1.0000     0.      0.00 
  -5   6  16    461.53    6.29  0. 1.0000     0.      0.00 
  -4   6  16   1054.50   12.36  0. 1.0000     0.      0.00 
  -3   6  16      0.00   10.99  0. 1.0000     0.      0.00 
  -2   6  16      0.00   31.95  0. 1.0000     0.      0.00 
  -1   6  16    636.40   34.21  0. 1.0000     0.      0.00 
   0   6  16   1367.89   27.74  0. 1.0000     0.      0.00 
   1   6  16     42.00    3.26  0. 1.0000     0.      0.00 
   2   6  16    180.17    4.26  0. 1.0000     0.      0.00 
   3   6  16      0.00    2.69  0. 1.0000     0.      0.00 
   4   6  16    210.52    4.09  0. 1.0000     0.      0.00 
   5   6  16      4.62    3.84  0. 1.0000     0.      0.00 
   6   6  16     30.82    5.95  0. 1.0000     0.      0.00 
   7   6  16    159.13   13.15  0. 1.0000     0.      0.00 
   8   6  16     93.10   18.79  0. 1.0000     0.      0.00 
   9   6  16      0.00   54.64  0. 1.0000     0.      0.00 
 -12   7  16    105.23    9.24  0. 1.0000     0.      0.00 
 -11   7  16    191.05    8.01  0. 1.0000     0.      0.00 
 -10   7  16     21.83    4.88  0. 1.0000     0.      0.00 
  -9   7  16     13.35    4.82  0. 1.0000     0.      0.00 
  -8   7  16    899.53   16.31  0. 1.0000     0.      0.00 
  -7   7  16     59.80    6.64  0. 1.0000     0.      0.00 
  -6   7  16     23.63    8.51  0. 1.0000     0.      0.00 
  -5   7  16      6.31   43.84  0. 1.0000     0.      0.00 
  -4   7  16    310.65   30.94  0. 1.0000     0.      0.00 
  -3   7  16    386.20   11.06  0. 1.0000     0.      0.00 
  -2   7  16    151.97    6.25  0. 1.0000     0.      0.00 
  -1   7  16    975.02   11.72  0. 1.0000     0.      0.00 
   0   7  16    184.36    3.79  0. 1.0000     0.      0.00 
   1   7  16     35.94    2.25  0. 1.0000     0.      0.00 
   2   7  16    199.00    4.15  0. 1.0000     0.      0.00 
   3   7  16    120.55    3.98  0. 1.0000     0.      0.00 
   4   7  16      5.18    7.63  0. 1.0000     0.      0.00 
   5   7  16    187.08   26.68  0. 1.0000     0.      0.00 
 -11   8  16    314.91   10.62  0. 1.0000     0.      0.00 
 -10   8  16     17.68   10.39  0. 1.0000     0.      0.00 
  -9   8  16      5.30   19.17  0. 1.0000     0.      0.00 
  -8   8  16    234.38   52.54  0. 1.0000     0.      0.00 
  -7   8  16      0.00   51.65  0. 1.0000     0.      0.00 
  -6   8  16      9.31    9.00  0. 1.0000     0.      0.00 
  -5   8  16   1105.69   16.75  0. 1.0000     0.      0.00 
  -4   8  16     26.87    3.63  0. 1.0000     0.      0.00 
  -3   8  16    103.10    3.58  0. 1.0000     0.      0.00 
  -2   8  16    392.59    5.46  0. 1.0000     0.      0.00 
  -1   8  16    398.34    6.18  0. 1.0000     0.      0.00 
   0   8  16     13.10    3.28  0. 1.0000     0.      0.00 
   1   8  16     13.65    5.89  0. 1.0000     0.      0.00 
   2   8  16      2.02   20.94  0. 1.0000     0.      0.00 
   5   8  16     30.03   20.54  0. 1.0000     0.      0.00 
   6   8  16      4.77   10.20  0. 1.0000     0.      0.00 
   7   8  16     54.40    9.13  0. 1.0000     0.      0.00 
 -11   9  16     55.38   32.35  0. 1.0000     0.      0.00 
 -10   9  16     41.19   28.01  0. 1.0000     0.      0.00 
  -9   9  16     82.55   13.47  0. 1.0000     0.      0.00 
  -8   9  16     23.71    8.31  0. 1.0000     0.      0.00 
  -7   9  16    171.04    8.94  0. 1.0000     0.      0.00 
  -6   9  16      7.01    5.26  0. 1.0000     0.      0.00 
  -5   9  16    862.75   12.85  0. 1.0000     0.      0.00 
  -4   9  16     43.59    4.11  0. 1.0000     0.      0.00 
  -3   9  16      4.21    4.04  0. 1.0000     0.      0.00 
  -2   9  16    106.04    7.05  0. 1.0000     0.      0.00 
  -1   9  16    512.48   20.93  0. 1.0000     0.      0.00 
   2   9  16    444.88   23.29  0. 1.0000     0.      0.00 
   3   9  16    218.24   12.73  0. 1.0000     0.      0.00 
   4   9  16     36.54    7.44  0. 1.0000     0.      0.00 
   5   9  16     11.49    6.92  0. 1.0000     0.      0.00 
   6   9  16      0.00    7.87  0. 1.0000     0.      0.00 
 -10  10  16      5.45    9.38  0. 1.0000     0.      0.00 
  -9  10  16    104.54    6.39  0. 1.0000     0.      0.00 
  -8  10  16    344.02    7.04  0. 1.0000     0.      0.00 
  -7  10  16     72.29    5.64  0. 1.0000     0.      0.00 
  -6  10  16      2.76    6.49  0. 1.0000     0.      0.00 
  -5  10  16    337.89   15.01  0. 1.0000     0.      0.00 
  -4  10  16     16.97   25.23  0. 1.0000     0.      0.00 
  -3  10  16     35.62   61.87  0. 1.0000     0.      0.00 
  -2  10  16    513.64   43.90  0. 1.0000     0.      0.00 
  -1  10  16    122.30   16.99  0. 1.0000     0.      0.00 
   0  10  16     26.47   11.88  0. 1.0000     0.      0.00 
   1  10  16     87.49    6.95  0. 1.0000     0.      0.00 
   2  10  16    104.63    6.94  0. 1.0000     0.      0.00 
   3  10  16     11.55    5.15  0. 1.0000     0.      0.00 
   4  10  16      5.72    7.00  0. 1.0000     0.      0.00 
   5  10  16     25.45   11.21  0. 1.0000     0.      0.00 
  -9  11  16      7.84   11.95  0. 1.0000     0.      0.00 
  -8  11  16     50.19   18.49  0. 1.0000     0.      0.00 
  -7  11  16     53.54   25.52  0. 1.0000     0.      0.00 
  -6  11  16      0.00   42.17  0. 1.0000     0.      0.00 
  -5  11  16     23.27   26.21  0. 1.0000     0.      0.00 
  -4  11  16    119.31   15.05  0. 1.0000     0.      0.00 
  -3  11  16      0.00   10.27  0. 1.0000     0.      0.00 
  -2  11  16    661.89   13.79  0. 1.0000     0.      0.00 
  -1  11  16      0.00    4.97  0. 1.0000     0.      0.00 
   0  11  16      6.05    4.17  0. 1.0000     0.      0.00 
   1  11  16     67.35    5.60  0. 1.0000     0.      0.00 
   2  11  16     88.86    8.83  0. 1.0000     0.      0.00 
   3  11  16     14.86   15.01  0. 1.0000     0.      0.00 
  -7  12  16     22.82   15.83  0. 1.0000     0.      0.00 
  -6  12  16    184.20   15.14  0. 1.0000     0.      0.00 
  -5  12  16     71.70    9.83  0. 1.0000     0.      0.00 
  -4  12  16    109.28    6.13  0. 1.0000     0.      0.00 
  -3  12  16      7.95    4.74  0. 1.0000     0.      0.00 
  -2  12  16     83.86    5.73  0. 1.0000     0.      0.00 
  -1  12  16     11.93    9.30  0. 1.0000     0.      0.00 
   0  12  16     21.11   15.84  0. 1.0000     0.      0.00 
   1  12  16     80.68   50.90  0. 1.0000     0.      0.00 
  -4  13  16     19.45   12.66  0. 1.0000     0.      0.00 
  -3  13  16      0.00   21.72  0. 1.0000     0.      0.00 
  -2  13  16     36.01   40.91  0. 1.0000     0.      0.00 
   0 -13  17      0.00   24.14  0. 1.0000     0.      0.00 
   1 -13  17      8.65   33.54  0. 1.0000     0.      0.00 
   2 -13  17     59.14   14.51  0. 1.0000     0.      0.00 
   3 -13  17     51.43    8.16  0. 1.0000     0.      0.00 
   4 -13  17     17.91    7.42  0. 1.0000     0.      0.00 
   5 -13  17      5.35    6.46  0. 1.0000     0.      0.00 
   6 -13  17    112.81    6.67  0. 1.0000     0.      0.00 
  -3 -12  17    149.01   47.30  0. 1.0000     0.      0.00 
  -2 -12  17    132.55   28.76  0. 1.0000     0.      0.00 
  -1 -12  17     16.53   12.68  0. 1.0000     0.      0.00 
   0 -12  17     19.47    7.64  0. 1.0000     0.      0.00 
   1 -12  17     13.49    6.16  0. 1.0000     0.      0.00 
   2 -12  17     29.93    5.59  0. 1.0000     0.      0.00 
   3 -12  17    248.48    6.58  0. 1.0000     0.      0.00 
   4 -12  17     31.76    5.76  0. 1.0000     0.      0.00 
   5 -12  17    204.30    7.80  0. 1.0000     0.      0.00 
   6 -12  17      4.37    9.16  0. 1.0000     0.      0.00 
   7 -12  17     48.28   14.40  0. 1.0000     0.      0.00 
   8 -12  17      0.00   23.29  0. 1.0000     0.      0.00 
  -4 -11  17      5.31   18.51  0. 1.0000     0.      0.00 
  -3 -11  17     26.39    9.62  0. 1.0000     0.      0.00 
  -2 -11  17     56.36    7.20  0. 1.0000     0.      0.00 
  -1 -11  17     81.13    6.65  0. 1.0000     0.      0.00 
   0 -11  17      6.62    4.39  0. 1.0000     0.      0.00 
   1 -11  17    264.69    6.80  0. 1.0000     0.      0.00 
   2 -11  17     15.48    5.95  0. 1.0000     0.      0.00 
   3 -11  17      0.00    7.14  0. 1.0000     0.      0.00 
   4 -11  17    130.12   11.79  0. 1.0000     0.      0.00 
   5 -11  17    344.61   17.90  0. 1.0000     0.      0.00 
   6 -11  17     61.13   31.93  0. 1.0000     0.      0.00 
   7 -11  17     36.46   11.81  0. 1.0000     0.      0.00 
   8 -11  17      5.95    8.29  0. 1.0000     0.      0.00 
   9 -11  17    419.41   10.93  0. 1.0000     0.      0.00 
  -6 -10  17     86.67   18.55  0. 1.0000     0.      0.00 
  -5 -10  17     12.55    8.91  0. 1.0000     0.      0.00 
  -4 -10  17      7.58    7.13  0. 1.0000     0.      0.00 
  -3 -10  17     32.35    5.32  0. 1.0000     0.      0.00 
  -2 -10  17     36.37    4.99  0. 1.0000     0.      0.00 
  -1 -10  17    112.67    6.72  0. 1.0000     0.      0.00 
   0 -10  17    147.52    7.58  0. 1.0000     0.      0.00 
   1 -10  17    472.23   13.08  0. 1.0000     0.      0.00 
   2 -10  17     34.21   15.71  0. 1.0000     0.      0.00 
   3 -10  17    215.61   22.86  0. 1.0000     0.      0.00 
   4 -10  17    248.36   17.71  0. 1.0000     0.      0.00 
   5 -10  17    294.00    8.64  0. 1.0000     0.      0.00 
   6 -10  17    202.53    6.72  0. 1.0000     0.      0.00 
   7 -10  17    114.75    5.23  0. 1.0000     0.      0.00 
   8 -10  17      0.00    4.66  0. 1.0000     0.      0.00 
   9 -10  17      0.00    6.83  0. 1.0000     0.      0.00 
  10 -10  17     40.90    8.44  0. 1.0000     0.      0.00 
  -7  -9  17     14.15    8.71  0. 1.0000     0.      0.00 
  -6  -9  17    135.35    8.12  0. 1.0000     0.      0.00 
  -5  -9  17      9.94    5.99  0. 1.0000     0.      0.00 
  -4  -9  17     26.74    6.88  0. 1.0000     0.      0.00 
  -3  -9  17    342.21    9.05  0. 1.0000     0.      0.00 
  -2  -9  17      0.00    9.18  0. 1.0000     0.      0.00 
  -1  -9  17      2.51   13.72  0. 1.0000     0.      0.00 
   0  -9  17    878.23   32.13  0. 1.0000     0.      0.00 
   1  -9  17      0.00    5.34  0. 1.0000     0.      0.00 
   2  -9  17     19.41    4.25  0. 1.0000     0.      0.00 
   3  -9  17      7.25    3.97  0. 1.0000     0.      0.00 
   4  -9  17    193.64    4.78  0. 1.0000     0.      0.00 
   5  -9  17     34.67    3.70  0. 1.0000     0.      0.00 
   6  -9  17    244.23    7.72  0. 1.0000     0.      0.00 
   7  -9  17      0.00    6.50  0. 1.0000     0.      0.00 
   8  -9  17    159.81    9.01  0. 1.0000     0.      0.00 
   9  -9  17     34.16   12.84  0. 1.0000     0.      0.00 
  10  -9  17     18.43   19.17  0. 1.0000     0.      0.00 
  11  -9  17     27.07   37.02  0. 1.0000     0.      0.00 
  -8  -8  17     15.64    9.02  0. 1.0000     0.      0.00 
  -7  -8  17      0.00    8.74  0. 1.0000     0.      0.00 
  -6  -8  17     55.23    9.33  0. 1.0000     0.      0.00 
  -5  -8  17      0.00    9.62  0. 1.0000     0.      0.00 
  -4  -8  17   1233.05   69.69  0. 1.0000     0.      0.00 
  -3  -8  17      3.14   21.23  0. 1.0000     0.      0.00 
  -2  -8  17      0.15    5.29  0. 1.0000     0.      0.00 
  -1  -8  17     20.69    3.86  0. 1.0000     0.      0.00 
   0  -8  17    329.17    5.50  0. 1.0000     0.      0.00 
   1  -8  17    176.32    3.84  0. 1.0000     0.      0.00 
   2  -8  17    541.53    6.74  0. 1.0000     0.      0.00 
   3  -8  17     57.01    3.67  0. 1.0000     0.      0.00 
   4  -8  17    430.01    8.73  0. 1.0000     0.      0.00 
   5  -8  17      0.00    4.46  0. 1.0000     0.      0.00 
   6  -8  17     29.65    6.80  0. 1.0000     0.      0.00 
   7  -8  17    381.48   39.41  0. 1.0000     0.      0.00 
   8  -8  17    615.06   69.59  0. 1.0000     0.      0.00 
   9  -8  17      4.10   13.69  0. 1.0000     0.      0.00 
  10  -8  17     26.40    8.23  0. 1.0000     0.      0.00 
  11  -8  17     10.14    8.40  0. 1.0000     0.      0.00 
  -8  -7  17    194.29   14.89  0. 1.0000     0.      0.00 
  -7  -7  17     37.83   73.36  0. 1.0000     0.      0.00 
  -6  -7  17      0.00   52.35  0. 1.0000     0.      0.00 
  -5  -7  17     43.67   12.06  0. 1.0000     0.      0.00 
  -4  -7  17    205.41    5.49  0. 1.0000     0.      0.00 
  -3  -7  17    678.04    9.25  0. 1.0000     0.      0.00 
  -2  -7  17      7.30    2.77  0. 1.0000     0.      0.00 
  -1  -7  17     57.01    2.85  0. 1.0000     0.      0.00 
   0  -7  17    645.49    8.52  0. 1.0000     0.      0.00 
   1  -7  17    215.89    4.42  0. 1.0000     0.      0.00 
   2  -7  17     79.91    3.63  0. 1.0000     0.      0.00 
   3  -7  17    631.28   13.01  0. 1.0000     0.      0.00 
   4  -7  17     62.52   12.28  0. 1.0000     0.      0.00 
   5  -7  17     21.41   10.69  0. 1.0000     0.      0.00 
   6  -7  17     11.61    5.90  0. 1.0000     0.      0.00 
   7  -7  17    533.35    9.43  0. 1.0000     0.      0.00 
   8  -7  17    319.40   11.39  0. 1.0000     0.      0.00 
   9  -7  17     95.25    5.26  0. 1.0000     0.      0.00 
  10  -7  17      8.17    4.21  0. 1.0000     0.      0.00 
  11  -7  17     50.78    6.47  0. 1.0000     0.      0.00 
  12  -7  17     44.06    9.73  0. 1.0000     0.      0.00 
  -9  -6  17     82.60   32.11  0. 1.0000     0.      0.00 
  -8  -6  17    159.91   12.79  0. 1.0000     0.      0.00 
  -7  -6  17    202.28    9.90  0. 1.0000     0.      0.00 
  -6  -6  17     15.02    6.47  0. 1.0000     0.      0.00 
  -5  -6  17     14.82    3.85  0. 1.0000     0.      0.00 
  -4  -6  17      8.73    2.89  0. 1.0000     0.      0.00 
  -3  -6  17    751.42    9.02  0. 1.0000     0.      0.00 
  -2  -6  17    161.49    3.78  0. 1.0000     0.      0.00 
  -1  -6  17    382.60    7.01  0. 1.0000     0.      0.00 
   0  -6  17    280.91    5.80  0. 1.0000     0.      0.00 
   1  -6  17      0.00   13.97  0. 1.0000     0.      0.00 
   2  -6  17    333.04   23.75  0. 1.0000     0.      0.00 
   3  -6  17   1883.96   26.77  0. 1.0000     0.      0.00 
   4  -6  17      0.00    5.13  0. 1.0000     0.      0.00 
   5  -6  17     38.03    4.14  0. 1.0000     0.      0.00 
   6  -6  17    256.41    4.70  0. 1.0000     0.      0.00 
   7  -6  17    425.37    6.99  0. 1.0000     0.      0.00 
   8  -6  17     78.36    6.23  0. 1.0000     0.      0.00 
   9  -6  17     70.91    6.24  0. 1.0000     0.      0.00 
  10  -6  17     56.49    8.15  0. 1.0000     0.      0.00 
  11  -6  17    175.87   12.01  0. 1.0000     0.      0.00 
  12  -6  17      0.00   27.67  0. 1.0000     0.      0.00 
 -10  -5  17      8.34   10.56  0. 1.0000     0.      0.00 
  -9  -5  17     10.33    6.60  0. 1.0000     0.      0.00 
  -8  -5  17     93.92    6.42  0. 1.0000     0.      0.00 
  -7  -5  17    379.13    7.49  0. 1.0000     0.      0.00 
  -6  -5  17      8.65    3.60  0. 1.0000     0.      0.00 
  -5  -5  17     35.49    3.51  0. 1.0000     0.      0.00 
  -4  -5  17     66.75    3.76  0. 1.0000     0.      0.00 
  -3  -5  17    195.00    4.34  0. 1.0000     0.      0.00 
  -2  -5  17    102.18   12.44  0. 1.0000     0.      0.00 
  -1  -5  17   2277.29   61.57  0. 1.0000     0.      0.00 
   0  -5  17    261.94    7.03  0. 1.0000     0.      0.00 
   1  -5  17    171.29    4.16  0. 1.0000     0.      0.00 
   2  -5  17     14.10    2.52  0. 1.0000     0.      0.00 
   3  -5  17   1626.10   17.88  0. 1.0000     0.      0.00 
   4  -5  17    192.93    7.51  0. 1.0000     0.      0.00 
   5  -5  17    268.63    4.50  0. 1.0000     0.      0.00 
   6  -5  17      1.83    3.37  0. 1.0000     0.      0.00 
   7  -5  17     44.40    4.16  0. 1.0000     0.      0.00 
   8  -5  17    145.19    7.13  0. 1.0000     0.      0.00 
  10  -5  17    271.11   26.32  0. 1.0000     0.      0.00 
  11  -5  17    382.24   18.64  0. 1.0000     0.      0.00 
  12  -5  17     28.21   17.34  0. 1.0000     0.      0.00 
 -10  -4  17     21.81    6.04  0. 1.0000     0.      0.00 
  -9  -4  17     11.14    5.83  0. 1.0000     0.      0.00 
  -8  -4  17    103.03    6.10  0. 1.0000     0.      0.00 
  -7  -4  17    148.85    5.46  0. 1.0000     0.      0.00 
  -6  -4  17     31.72    4.31  0. 1.0000     0.      0.00 
  -5  -4  17   1097.99   40.17  0. 1.0000     0.      0.00 
  -4  -4  17     53.54   18.55  0. 1.0000     0.      0.00 
  -3  -4  17    129.31    3.85  0. 1.0000     0.      0.00 
  -2  -4  17    340.08    4.53  0. 1.0000     0.      0.00 
  -1  -4  17    574.38    8.68  0. 1.0000     0.      0.00 
   0  -4  17   1369.25   12.76  0. 1.0000     0.      0.00 
   1  -4  17    247.45    4.39  0. 1.0000     0.      0.00 
   2  -4  17    101.19    3.33  0. 1.0000     0.      0.00 
   3  -4  17    442.62    7.31  0. 1.0000     0.      0.00 
   4  -4  17    379.56    8.55  0. 1.0000     0.      0.00 
   5  -4  17     70.99    4.11  0. 1.0000     0.      0.00 
   6  -4  17   1569.39   78.33  0. 1.0000     0.      0.00 
   7  -4  17     14.51   11.81  0. 1.0000     0.      0.00 
   8  -4  17     19.47    6.08  0. 1.0000     0.      0.00 
   9  -4  17    105.85   11.12  0. 1.0000     0.      0.00 
  10  -4  17    494.22   11.79  0. 1.0000     0.      0.00 
  11  -4  17      0.00    5.80  0. 1.0000     0.      0.00 
  12  -4  17     28.33    5.47  0. 1.0000     0.      0.00 
 -11  -3  17     23.22    7.93  0. 1.0000     0.      0.00 
 -10  -3  17     10.09    7.21  0. 1.0000     0.      0.00 
  -9  -3  17     65.26   10.32  0. 1.0000     0.      0.00 
  -8  -3  17     55.36   27.70  0. 1.0000     0.      0.00 
  -7  -3  17     31.39   14.45  0. 1.0000     0.      0.00 
  -6  -3  17    432.61    8.96  0. 1.0000     0.      0.00 
  -5  -3  17     37.66    4.11  0. 1.0000     0.      0.00 
  -4  -3  17    576.29    7.28  0. 1.0000     0.      0.00 
  -3  -3  17     24.11    1.85  0. 1.0000     0.      0.00 
  -2  -3  17     24.00    1.52  0. 1.0000     0.      0.00 
  -1  -3  17    151.53    7.89  0. 1.0000     0.      0.00 
   0  -3  17   1417.25   14.13  0. 1.0000     0.      0.00 
   1  -3  17    104.84    3.15  0. 1.0000     0.      0.00 
   2  -3  17    901.50   12.89  0. 1.0000     0.      0.00 
   3  -3  17    139.53   19.38  0. 1.0000     0.      0.00 
   4  -3  17     81.22   14.90  0. 1.0000     0.      0.00 
   5  -3  17     97.52    5.52  0. 1.0000     0.      0.00 
   6  -3  17   2523.27   33.52  0. 1.0000     0.      0.00 
   7  -3  17     10.65    3.24  0. 1.0000     0.      0.00 
   8  -3  17      8.88    3.20  0. 1.0000     0.      0.00 
   9  -3  17     21.37    3.58  0. 1.0000     0.      0.00 
  10  -3  17    167.42    6.89  0. 1.0000     0.      0.00 
  11  -3  17    250.18   10.05  0. 1.0000     0.      0.00 
  12  -3  17     22.82   11.83  0. 1.0000     0.      0.00 
 -11  -2  17     12.47   20.60  0. 1.0000     0.      0.00 
 -10  -2  17    219.82   21.24  0. 1.0000     0.      0.00 
  -9  -2  17     32.16   11.27  0. 1.0000     0.      0.00 
  -8  -2  17     67.43    5.18  0. 1.0000     0.      0.00 
  -7  -2  17      2.25    3.62  0. 1.0000     0.      0.00 
  -6  -2  17     51.70    3.04  0. 1.0000     0.      0.00 
  -5  -2  17    711.73    9.67  0. 1.0000     0.      0.00 
  -4  -2  17    954.78   14.01  0. 1.0000     0.      0.00 
  -3  -2  17    448.45    5.62  0. 1.0000     0.      0.00 
  -2  -2  17    504.44    5.80  0. 1.0000     0.      0.00 
  -1  -2  17      0.00   11.73  0. 1.0000     0.      0.00 
   0  -2  17     17.91    5.16  0. 1.0000     0.      0.00 
   1  -2  17    995.75   22.44  0. 1.0000     0.      0.00 
   2  -2  17   1720.11   23.69  0. 1.0000     0.      0.00 
   3  -2  17    214.58    4.45  0. 1.0000     0.      0.00 
   4  -2  17     27.06    3.18  0. 1.0000     0.      0.00 
   5  -2  17     69.90    2.72  0. 1.0000     0.      0.00 
   6  -2  17   1047.78   17.02  0. 1.0000     0.      0.00 
   7  -2  17    455.06    6.94  0. 1.0000     0.      0.00 
   8  -2  17     12.80    3.68  0. 1.0000     0.      0.00 
   9  -2  17    266.50   11.07  0. 1.0000     0.      0.00 
  10  -2  17      4.69   11.65  0. 1.0000     0.      0.00 
  11  -2  17     52.53   53.00  0. 1.0000     0.      0.00 
  12  -2  17     17.86   36.36  0. 1.0000     0.      0.00 
 -12  -1  17      8.36   21.51  0. 1.0000     0.      0.00 
 -11  -1  17      0.00    9.44  0. 1.0000     0.      0.00 
 -10  -1  17    117.29    6.47  0. 1.0000     0.      0.00 
  -9  -1  17    635.44   14.16  0. 1.0000     0.      0.00 
  -8  -1  17     57.50    3.92  0. 1.0000     0.      0.00 
  -7  -1  17    104.60    3.41  0. 1.0000     0.      0.00 
  -6  -1  17     97.13    3.56  0. 1.0000     0.      0.00 
  -5  -1  17    328.67    7.91  0. 1.0000     0.      0.00 
  -4  -1  17    432.17    8.29  0. 1.0000     0.      0.00 
  -3  -1  17    256.26   13.12  0. 1.0000     0.      0.00 
  -2  -1  17    583.53   41.59  0. 1.0000     0.      0.00 
  -1  -1  17    326.07    5.72  0. 1.0000     0.      0.00 
   0  -1  17    465.18    6.29  0. 1.0000     0.      0.00 
   1  -1  17    650.07    9.52  0. 1.0000     0.      0.00 
   2  -1  17   1196.33   13.20  0. 1.0000     0.      0.00 
   3  -1  17    649.09    8.11  0. 1.0000     0.      0.00 
   4  -1  17    238.83    3.71  0. 1.0000     0.      0.00 
   5  -1  17     61.97    2.79  0. 1.0000     0.      0.00 
   6  -1  17     56.92    3.43  0. 1.0000     0.      0.00 
   7  -1  17    370.88   11.68  0. 1.0000     0.      0.00 
   8  -1  17      7.15   27.98  0. 1.0000     0.      0.00 
   9  -1  17   1031.36   80.50  0. 1.0000     0.      0.00 
  10  -1  17     45.76   13.45  0. 1.0000     0.      0.00 
  11  -1  17      9.01   14.17  0. 1.0000     0.      0.00 
  12  -1  17      1.41    9.60  0. 1.0000     0.      0.00 
 -12   0  17     20.34    7.49  0. 1.0000     0.      0.00 
 -11   0  17     29.61    5.54  0. 1.0000     0.      0.00 
 -10   0  17     10.83    4.82  0. 1.0000     0.      0.00 
  -9   0  17    907.96   15.40  0. 1.0000     0.      0.00 
  -8   0  17     67.75    5.30  0. 1.0000     0.      0.00 
  -7   0  17     16.25    4.93  0. 1.0000     0.      0.00 
  -6   0  17    365.96   20.59  0. 1.0000     0.      0.00 
  -5   0  17    152.29   15.25  0. 1.0000     0.      0.00 
  -4   0  17     96.22    3.82  0. 1.0000     0.      0.00 
  -3   0  17   1857.45   21.21  0. 1.0000     0.      0.00 
  -2   0  17     98.58    2.35  0. 1.0000     0.      0.00 
  -1   0  17    470.81    6.07  0. 1.0000     0.      0.00 
   0   0  17    496.98    6.68  0. 1.0000     0.      0.00 
   1   0  17    234.83    4.21  0. 1.0000     0.      0.00 
   2   0  17      9.65    1.87  0. 1.0000     0.      0.00 
   3   0  17    602.57   11.44  0. 1.0000     0.      0.00 
   4   0  17    185.07    5.28  0. 1.0000     0.      0.00 
   5   0  17   1005.46   62.86  0. 1.0000     0.      0.00 
   6   0  17    178.34   16.18  0. 1.0000     0.      0.00 
   7   0  17     21.84    6.55  0. 1.0000     0.      0.00 
   8   0  17     13.74    5.12  0. 1.0000     0.      0.00 
   9   0  17    974.74   17.07  0. 1.0000     0.      0.00 
  10   0  17     16.33    4.86  0. 1.0000     0.      0.00 
  11   0  17      9.83    4.97  0. 1.0000     0.      0.00 
  12   0  17     28.48   12.71  0. 1.0000     0.      0.00 
 -12   1  17     10.16    7.53  0. 1.0000     0.      0.00 
 -11   1  17     19.97    7.37  0. 1.0000     0.      0.00 
 -10   1  17      0.00    8.09  0. 1.0000     0.      0.00 
  -9   1  17    152.26   19.24  0. 1.0000     0.      0.00 
  -8   1  17      5.76    8.80  0. 1.0000     0.      0.00 
  -7   1  17    705.43   12.54  0. 1.0000     0.      0.00 
  -6   1  17    148.18    3.87  0. 1.0000     0.      0.00 
  -5   1  17      6.54    2.52  0. 1.0000     0.      0.00 
  -4   1  17     14.30    2.44  0. 1.0000     0.      0.00 
  -3   1  17    663.43    9.06  0. 1.0000     0.      0.00 
  -2   1  17    763.68   10.91  0. 1.0000     0.      0.00 
  -1   1  17    653.27    9.11  0. 1.0000     0.      0.00 
   0   1  17    333.45    5.46  0. 1.0000     0.      0.00 
   1   1  17    298.60    7.77  0. 1.0000     0.      0.00 
   2   1  17    929.91  111.83  0. 1.0000     0.      0.00 
   4   1  17   1022.13   19.53  0. 1.0000     0.      0.00 
   5   1  17   1333.18   14.94  0. 1.0000     0.      0.00 
   6   1  17     10.66    2.88  0. 1.0000     0.      0.00 
   7   1  17      1.45    3.08  0. 1.0000     0.      0.00 
   8   1  17     43.31    3.25  0. 1.0000     0.      0.00 
   9   1  17     63.86    6.05  0. 1.0000     0.      0.00 
  10   1  17    334.88   11.90  0. 1.0000     0.      0.00 
  11   1  17     14.10   12.36  0. 1.0000     0.      0.00 
 -12   2  17     17.88   18.78  0. 1.0000     0.      0.00 
 -11   2  17    138.09   19.39  0. 1.0000     0.      0.00 
 -10   2  17      7.95   11.42  0. 1.0000     0.      0.00 
  -9   2  17     14.61    7.63  0. 1.0000     0.      0.00 
  -8   2  17      5.29    3.67  0. 1.0000     0.      0.00 
  -7   2  17    207.03    5.51  0. 1.0000     0.      0.00 
  -6   2  17   1981.47   22.63  0. 1.0000     0.      0.00 
  -5   2  17     99.02    2.87  0. 1.0000     0.      0.00 
  -4   2  17    464.04    6.06  0. 1.0000     0.      0.00 
  -3   2  17    335.88    5.28  0. 1.0000     0.      0.00 
  -2   2  17    615.69   18.68  0. 1.0000     0.      0.00 
   1   2  17     17.55    4.88  0. 1.0000     0.      0.00 
   2   2  17    127.92    2.66  0. 1.0000     0.      0.00 
   3   2  17     23.89    2.00  0. 1.0000     0.      0.00 
   4   2  17    387.30    5.07  0. 1.0000     0.      0.00 
   5   2  17    205.19    3.59  0. 1.0000     0.      0.00 
   6   2  17    192.71    4.09  0. 1.0000     0.      0.00 
   7   2  17      8.33    3.71  0. 1.0000     0.      0.00 
   8   2  17    377.54   17.49  0. 1.0000     0.      0.00 
   9   2  17     44.51   13.05  0. 1.0000     0.      0.00 
  10   2  17    106.05   46.58  0. 1.0000     0.      0.00 
 -12   3  17     55.04   12.02  0. 1.0000     0.      0.00 
 -11   3  17     47.38    7.44  0. 1.0000     0.      0.00 
 -10   3  17    517.65   10.61  0. 1.0000     0.      0.00 
  -9   3  17      9.72    4.58  0. 1.0000     0.      0.00 
  -8   3  17     29.57    3.26  0. 1.0000     0.      0.00 
  -7   3  17      8.82    3.59  0. 1.0000     0.      0.00 
  -6   3  17   1444.47   24.81  0. 1.0000     0.      0.00 
  -5   3  17    242.34    7.75  0. 1.0000     0.      0.00 
  -4   3  17    113.48   16.45  0. 1.0000     0.      0.00 
  -3   3  17      0.00   11.43  0. 1.0000     0.      0.00 
  -2   3  17     70.78    4.54  0. 1.0000     0.      0.00 
  -1   3  17    199.83    6.70  0. 1.0000     0.      0.00 
   0   3  17   2422.37   25.93  0. 1.0000     0.      0.00 
   1   3  17      5.95    1.83  0. 1.0000     0.      0.00 
   2   3  17     28.16    1.62  0. 1.0000     0.      0.00 
   3   3  17    346.00    5.03  0. 1.0000     0.      0.00 
   4   3  17    351.48    5.74  0. 1.0000     0.      0.00 
   5   3  17    630.86   10.78  0. 1.0000     0.      0.00 
   6   3  17    160.33    7.98  0. 1.0000     0.      0.00 
   7   3  17    103.80   34.38  0. 1.0000     0.      0.00 
   9   3  17      0.00   20.11  0. 1.0000     0.      0.00 
  10   3  17      4.55   12.83  0. 1.0000     0.      0.00 
 -12   4  17     12.31    6.30  0. 1.0000     0.      0.00 
 -11   4  17    165.55    6.33  0. 1.0000     0.      0.00 
 -10   4  17    569.84   12.99  0. 1.0000     0.      0.00 
  -9   4  17     17.98    8.09  0. 1.0000     0.      0.00 
  -8   4  17      9.60    7.54  0. 1.0000     0.      0.00 
  -7   4  17     16.68   17.68  0. 1.0000     0.      0.00 
  -6   4  17    168.16   12.11  0. 1.0000     0.      0.00 
  -5   4  17    149.57    8.88  0. 1.0000     0.      0.00 
  -4   4  17   1001.16   12.40  0. 1.0000     0.      0.00 
  -3   4  17   1137.08   12.61  0. 1.0000     0.      0.00 
  -2   4  17     10.34    2.08  0. 1.0000     0.      0.00 
  -1   4  17    266.23    3.50  0. 1.0000     0.      0.00 
   0   4  17    948.59   12.30  0. 1.0000     0.      0.00 
   1   4  17    703.31    8.82  0. 1.0000     0.      0.00 
   2   4  17    103.11    2.80  0. 1.0000     0.      0.00 
   3   4  17    134.19   10.07  0. 1.0000     0.      0.00 
   6   4  17     15.69   27.89  0. 1.0000     0.      0.00 
   7   4  17    185.64   10.61  0. 1.0000     0.      0.00 
   8   4  17    248.72    8.89  0. 1.0000     0.      0.00 
   9   4  17      2.99    6.32  0. 1.0000     0.      0.00 
  10   4  17     15.04    6.86  0. 1.0000     0.      0.00 
 -12   5  17      6.20   10.48  0. 1.0000     0.      0.00 
 -11   5  17    169.25   15.93  0. 1.0000     0.      0.00 
 -10   5  17     56.11   23.71  0. 1.0000     0.      0.00 
  -9   5  17      0.00   34.36  0. 1.0000     0.      0.00 
  -8   5  17    240.59    8.64  0. 1.0000     0.      0.00 
  -7   5  17    257.18    6.05  0. 1.0000     0.      0.00 
  -6   5  17     56.69    3.60  0. 1.0000     0.      0.00 
  -5   5  17    144.19    4.06  0. 1.0000     0.      0.00 
  -4   5  17    299.02    5.56  0. 1.0000     0.      0.00 
  -3   5  17   1195.97   13.30  0. 1.0000     0.      0.00 
  -2   5  17    211.00    4.05  0. 1.0000     0.      0.00 
  -1   5  17    174.36    4.21  0. 1.0000     0.      0.00 
   0   5  17      8.04    8.96  0. 1.0000     0.      0.00 
   3   5  17   1355.13   52.01  0. 1.0000     0.      0.00 
   4   5  17     18.25    3.80  0. 1.0000     0.      0.00 
   5   5  17     25.03    4.51  0. 1.0000     0.      0.00 
   6   5  17     51.57    5.36  0. 1.0000     0.      0.00 
   7   5  17    343.90    8.23  0. 1.0000     0.      0.00 
   8   5  17     26.62    6.60  0. 1.0000     0.      0.00 
   9   5  17     47.87   10.19  0. 1.0000     0.      0.00 
 -12   6  17     17.52   21.76  0. 1.0000     0.      0.00 
 -11   6  17     11.57   12.02  0. 1.0000     0.      0.00 
 -10   6  17      8.83    8.22  0. 1.0000     0.      0.00 
  -9   6  17    154.89    6.66  0. 1.0000     0.      0.00 
  -8   6  17      6.89    4.93  0. 1.0000     0.      0.00 
  -7   6  17    674.06    7.84  0. 1.0000     0.      0.00 
  -6   6  17     17.39    3.07  0. 1.0000     0.      0.00 
  -5   6  17     25.92    3.37  0. 1.0000     0.      0.00 
  -4   6  17      2.02    3.49  0. 1.0000     0.      0.00 
  -3   6  17    730.29   16.54  0. 1.0000     0.      0.00 
  -1   6  17    710.00   44.59  0. 1.0000     0.      0.00 
   0   6  17    549.54   15.39  0. 1.0000     0.      0.00 
   1   6  17     19.70    3.46  0. 1.0000     0.      0.00 
   2   6  17      0.00    3.00  0. 1.0000     0.      0.00 
   3   6  17    841.85   11.05  0. 1.0000     0.      0.00 
   4   6  17     17.34    2.75  0. 1.0000     0.      0.00 
   5   6  17      6.63    4.73  0. 1.0000     0.      0.00 
   6   6  17     11.58    6.36  0. 1.0000     0.      0.00 
   7   6  17    195.14   15.16  0. 1.0000     0.      0.00 
   8   6  17    282.28   21.41  0. 1.0000     0.      0.00 
   9   6  17      2.81   55.67  0. 1.0000     0.      0.00 
 -11   7  17     18.59    7.30  0. 1.0000     0.      0.00 
 -10   7  17     10.74    5.12  0. 1.0000     0.      0.00 
  -9   7  17     55.09    5.25  0. 1.0000     0.      0.00 
  -8   7  17    397.08    9.58  0. 1.0000     0.      0.00 
  -7   7  17    411.19   10.19  0. 1.0000     0.      0.00 
  -6   7  17    170.39    9.76  0. 1.0000     0.      0.00 
  -5   7  17     58.85   33.89  0. 1.0000     0.      0.00 
  -4   7  17    327.28   26.74  0. 1.0000     0.      0.00 
  -3   7  17     17.71    8.26  0. 1.0000     0.      0.00 
  -2   7  17    408.36    7.20  0. 1.0000     0.      0.00 
  -1   7  17    788.47   10.03  0. 1.0000     0.      0.00 
   0   7  17    272.33    5.02  0. 1.0000     0.      0.00 
   1   7  17      4.43    2.07  0. 1.0000     0.      0.00 
   2   7  17     86.16    3.32  0. 1.0000     0.      0.00 
   3   7  17    183.41    5.52  0. 1.0000     0.      0.00 
   4   7  17    644.84   17.37  0. 1.0000     0.      0.00 
   5   7  17      0.00   34.70  0. 1.0000     0.      0.00 
 -11   8  17      9.14    8.75  0. 1.0000     0.      0.00 
 -10   8  17     41.66   10.76  0. 1.0000     0.      0.00 
  -9   8  17     16.89   19.14  0. 1.0000     0.      0.00 
  -8   8  17    201.68   38.21  0. 1.0000     0.      0.00 
  -7   8  17     62.20   46.02  0. 1.0000     0.      0.00 
  -6   8  17    133.31   14.45  0. 1.0000     0.      0.00 
  -5   8  17     30.50    6.05  0. 1.0000     0.      0.00 
  -4   8  17    482.93    7.53  0. 1.0000     0.      0.00 
  -3   8  17      0.00    4.23  0. 1.0000     0.      0.00 
  -2   8  17     60.28    2.79  0. 1.0000     0.      0.00 
  -1   8  17     91.35    4.72  0. 1.0000     0.      0.00 
   0   8  17    305.45    5.75  0. 1.0000     0.      0.00 
   1   8  17     27.05    6.59  0. 1.0000     0.      0.00 
   5   8  17      0.00   22.50  0. 1.0000     0.      0.00 
   6   8  17    243.94   14.20  0. 1.0000     0.      0.00 
   7   8  17      4.87    9.32  0. 1.0000     0.      0.00 
 -10   9  17      0.00   27.30  0. 1.0000     0.      0.00 
  -9   9  17     13.64   13.46  0. 1.0000     0.      0.00 
  -8   9  17     67.35    9.59  0. 1.0000     0.      0.00 
  -7   9  17      0.00    6.81  0. 1.0000     0.      0.00 
  -6   9  17    435.56    8.72  0. 1.0000     0.      0.00 
  -5   9  17     63.04    5.34  0. 1.0000     0.      0.00 
  -4   9  17    182.03    7.26  0. 1.0000     0.      0.00 
  -3   9  17    181.09    6.13  0. 1.0000     0.      0.00 
  -2   9  17      0.00    8.00  0. 1.0000     0.      0.00 
  -1   9  17    268.30   21.38  0. 1.0000     0.      0.00 
   2   9  17    462.01   20.38  0. 1.0000     0.      0.00 
   3   9  17     87.27   12.22  0. 1.0000     0.      0.00 
   4   9  17      0.00    7.10  0. 1.0000     0.      0.00 
   5   9  17      0.00    7.99  0. 1.0000     0.      0.00 
   6   9  17    148.33    9.23  0. 1.0000     0.      0.00 
 -10  10  17    165.43    8.27  0. 1.0000     0.      0.00 
  -9  10  17    190.17    7.31  0. 1.0000     0.      0.00 
  -8  10  17     11.38    4.20  0. 1.0000     0.      0.00 
  -7  10  17     15.04    5.91  0. 1.0000     0.      0.00 
  -6  10  17     87.12    8.25  0. 1.0000     0.      0.00 
  -5  10  17    283.80   16.74  0. 1.0000     0.      0.00 
  -4  10  17     99.58   20.14  0. 1.0000     0.      0.00 
  -2  10  17     52.83   47.27  0. 1.0000     0.      0.00 
  -1  10  17    634.52   25.69  0. 1.0000     0.      0.00 
   0  10  17      0.00   10.07  0. 1.0000     0.      0.00 
   1  10  17     43.39    6.79  0. 1.0000     0.      0.00 
   2  10  17    150.72    6.22  0. 1.0000     0.      0.00 
   3  10  17     10.61    5.16  0. 1.0000     0.      0.00 
   4  10  17      2.59    7.59  0. 1.0000     0.      0.00 
   5  10  17     47.27   37.61  0. 1.0000     0.      0.00 
  -9  11  17    402.73   25.06  0. 1.0000     0.      0.00 
  -8  11  17     14.71   21.48  0. 1.0000     0.      0.00 
  -7  11  17     89.16   26.55  0. 1.0000     0.      0.00 
  -6  11  17      0.00   43.21  0. 1.0000     0.      0.00 
  -5  11  17    320.97   63.45  0. 1.0000     0.      0.00 
  -4  11  17      4.06   14.02  0. 1.0000     0.      0.00 
  -3  11  17    330.52   14.30  0. 1.0000     0.      0.00 
  -2  11  17      1.91    8.03  0. 1.0000     0.      0.00 
  -1  11  17     45.47    4.91  0. 1.0000     0.      0.00 
   0  11  17      0.00    4.75  0. 1.0000     0.      0.00 
   1  11  17     20.48    5.71  0. 1.0000     0.      0.00 
   2  11  17      1.10    8.62  0. 1.0000     0.      0.00 
   3  11  17    111.02   15.03  0. 1.0000     0.      0.00 
  -7  12  17     39.52   10.67  0. 1.0000     0.      0.00 
  -6  12  17     18.51   13.56  0. 1.0000     0.      0.00 
  -5  12  17     79.44   10.52  0. 1.0000     0.      0.00 
  -4  12  17     20.21    5.88  0. 1.0000     0.      0.00 
  -3  12  17    230.11    6.30  0. 1.0000     0.      0.00 
  -2  12  17     19.63    6.13  0. 1.0000     0.      0.00 
  -1  12  17      6.94   10.47  0. 1.0000     0.      0.00 
   0  12  17     32.72   16.95  0. 1.0000     0.      0.00 
   1  12  17      0.00   36.30  0. 1.0000     0.      0.00 
   0 -13  18      0.00   44.98  0. 1.0000     0.      0.00 
   1 -13  18      0.00   25.99  0. 1.0000     0.      0.00 
   2 -13  18     27.26   15.51  0. 1.0000     0.      0.00 
   3 -13  18     15.28    8.54  0. 1.0000     0.      0.00 
   4 -13  18      2.10    7.69  0. 1.0000     0.      0.00 
   5 -13  18      8.46    6.65  0. 1.0000     0.      0.00 
   6 -13  18      0.00    6.97  0. 1.0000     0.      0.00 
  -2 -12  18     88.19   29.30  0. 1.0000     0.      0.00 
  -1 -12  18     27.59   14.71  0. 1.0000     0.      0.00 
   0 -12  18     11.53    7.30  0. 1.0000     0.      0.00 
   1 -12  18      5.57    6.27  0. 1.0000     0.      0.00 
   2 -12  18      9.87    5.62  0. 1.0000     0.      0.00 
   3 -12  18     26.54    4.54  0. 1.0000     0.      0.00 
   4 -12  18    273.41    7.90  0. 1.0000     0.      0.00 
   5 -12  18      0.00    7.24  0. 1.0000     0.      0.00 
   6 -12  18      2.41   10.00  0. 1.0000     0.      0.00 
   7 -12  18      2.30   14.40  0. 1.0000     0.      0.00 
   8 -12  18     46.79   17.78  0. 1.0000     0.      0.00 
  -4 -11  18     30.27   16.55  0. 1.0000     0.      0.00 
  -3 -11  18     42.14   10.43  0. 1.0000     0.      0.00 
  -2 -11  18     11.45    7.36  0. 1.0000     0.      0.00 
  -1 -11  18     42.90    6.11  0. 1.0000     0.      0.00 
   0 -11  18      0.00    4.54  0. 1.0000     0.      0.00 
   1 -11  18      7.67    5.18  0. 1.0000     0.      0.00 
   2 -11  18      0.00    6.11  0. 1.0000     0.      0.00 
   3 -11  18     21.64    6.95  0. 1.0000     0.      0.00 
   4 -11  18    210.70   12.14  0. 1.0000     0.      0.00 
   5 -11  18     17.20   21.46  0. 1.0000     0.      0.00 
   6 -11  18      0.00   22.95  0. 1.0000     0.      0.00 
   7 -11  18      3.46   12.77  0. 1.0000     0.      0.00 
   8 -11  18      4.00    8.33  0. 1.0000     0.      0.00 
   9 -11  18     23.77    8.91  0. 1.0000     0.      0.00 
  -5 -10  18     30.77    9.54  0. 1.0000     0.      0.00 
  -4 -10  18      5.26    7.32  0. 1.0000     0.      0.00 
  -3 -10  18     21.39    5.58  0. 1.0000     0.      0.00 
  -2 -10  18     10.23    5.32  0. 1.0000     0.      0.00 
  -1 -10  18     20.50    6.25  0. 1.0000     0.      0.00 
   0 -10  18     10.82    6.94  0. 1.0000     0.      0.00 
   1 -10  18     52.66    9.88  0. 1.0000     0.      0.00 
   2 -10  18      0.00   22.22  0. 1.0000     0.      0.00 
   3 -10  18      0.00   45.80  0. 1.0000     0.      0.00 
   4 -10  18     11.37   13.52  0. 1.0000     0.      0.00 
   5 -10  18      0.00    6.50  0. 1.0000     0.      0.00 
   6 -10  18     71.43    5.92  0. 1.0000     0.      0.00 
   7 -10  18     24.23    5.29  0. 1.0000     0.      0.00 
   8 -10  18      0.00    5.21  0. 1.0000     0.      0.00 
   9 -10  18      0.00    6.88  0. 1.0000     0.      0.00 
  10 -10  18     21.27    8.33  0. 1.0000     0.      0.00 
  -6  -9  18     23.95    7.78  0. 1.0000     0.      0.00 
  -5  -9  18     10.47    6.65  0. 1.0000     0.      0.00 
  -4  -9  18      0.00    7.11  0. 1.0000     0.      0.00 
  -3  -9  18      9.16    7.11  0. 1.0000     0.      0.00 
  -2  -9  18     24.86    9.43  0. 1.0000     0.      0.00 
  -1  -9  18    369.89   24.97  0. 1.0000     0.      0.00 
   0  -9  18     23.58   17.80  0. 1.0000     0.      0.00 
   1  -9  18     36.77    6.72  0. 1.0000     0.      0.00 
   2  -9  18     77.95    4.84  0. 1.0000     0.      0.00 
   3  -9  18     47.76    4.55  0. 1.0000     0.      0.00 
   4  -9  18      0.00    3.64  0. 1.0000     0.      0.00 
   5  -9  18     49.28    6.00  0. 1.0000     0.      0.00 
   6  -9  18     12.56    6.54  0. 1.0000     0.      0.00 
   7  -9  18    462.58   10.38  0. 1.0000     0.      0.00 
   8  -9  18      2.60    7.11  0. 1.0000     0.      0.00 
   9  -9  18     29.89   12.51  0. 1.0000     0.      0.00 
  10  -9  18      0.00   23.80  0. 1.0000     0.      0.00 
  11  -9  18     30.62   14.66  0. 1.0000     0.      0.00 
  -7  -8  18     51.99    9.14  0. 1.0000     0.      0.00 
  -6  -8  18     66.33    9.28  0. 1.0000     0.      0.00 
  -5  -8  18     59.49   11.50  0. 1.0000     0.      0.00 
  -4  -8  18    318.85   34.56  0. 1.0000     0.      0.00 
  -3  -8  18    122.90   22.36  0. 1.0000     0.      0.00 
  -2  -8  18     91.31    5.49  0. 1.0000     0.      0.00 
  -1  -8  18     28.81    4.12  0. 1.0000     0.      0.00 
   0  -8  18     22.91    3.56  0. 1.0000     0.      0.00 
   1  -8  18     60.10    3.96  0. 1.0000     0.      0.00 
   2  -8  18      0.00    3.09  0. 1.0000     0.      0.00 
   3  -8  18     71.72    3.68  0. 1.0000     0.      0.00 
   4  -8  18      3.23    3.95  0. 1.0000     0.      0.00 
   5  -8  18      0.00    5.89  0. 1.0000     0.      0.00 
   6  -8  18    137.10    8.12  0. 1.0000     0.      0.00 
   7  -8  18    368.78   49.83  0. 1.0000     0.      0.00 
   8  -8  18     21.18   42.18  0. 1.0000     0.      0.00 
   9  -8  18     24.02   12.96  0. 1.0000     0.      0.00 
  10  -8  18      9.90    8.77  0. 1.0000     0.      0.00 
  11  -8  18     19.85    8.64  0. 1.0000     0.      0.00 
  -8  -7  18      9.02   14.54  0. 1.0000     0.      0.00 
  -7  -7  18      0.00   61.04  0. 1.0000     0.      0.00 
  -6  -7  18     54.58   45.30  0. 1.0000     0.      0.00 
  -5  -7  18      0.45    9.12  0. 1.0000     0.      0.00 
  -4  -7  18    297.58    7.16  0. 1.0000     0.      0.00 
  -3  -7  18    132.39    4.60  0. 1.0000     0.      0.00 
  -2  -7  18    106.37    3.84  0. 1.0000     0.      0.00 
  -1  -7  18     59.82    2.86  0. 1.0000     0.      0.00 
   0  -7  18     22.06    3.13  0. 1.0000     0.      0.00 
   1  -7  18    170.60    6.46  0. 1.0000     0.      0.00 
   2  -7  18    721.56    9.84  0. 1.0000     0.      0.00 
   3  -7  18      7.94    5.63  0. 1.0000     0.      0.00 
   4  -7  18      0.00   13.02  0. 1.0000     0.      0.00 
   6  -7  18      3.10    6.51  0. 1.0000     0.      0.00 
   7  -7  18      0.00    5.82  0. 1.0000     0.      0.00 
   8  -7  18    163.47    7.70  0. 1.0000     0.      0.00 
   9  -7  18     66.14    5.30  0. 1.0000     0.      0.00 
  10  -7  18     61.27    4.73  0. 1.0000     0.      0.00 
  11  -7  18     12.79    6.44  0. 1.0000     0.      0.00 
  -9  -6  18     12.72   22.74  0. 1.0000     0.      0.00 
  -8  -6  18    178.00   12.59  0. 1.0000     0.      0.00 
  -7  -6  18     79.46    8.59  0. 1.0000     0.      0.00 
  -6  -6  18      0.00    6.47  0. 1.0000     0.      0.00 
  -5  -6  18     20.12    4.12  0. 1.0000     0.      0.00 
  -4  -6  18     11.03    3.39  0. 1.0000     0.      0.00 
  -3  -6  18    120.36    3.52  0. 1.0000     0.      0.00 
  -2  -6  18    250.98    5.00  0. 1.0000     0.      0.00 
  -1  -6  18      7.48    3.27  0. 1.0000     0.      0.00 
   0  -6  18      0.00    6.48  0. 1.0000     0.      0.00 
   1  -6  18      0.00   15.04  0. 1.0000     0.      0.00 
   2  -6  18    167.96   14.75  0. 1.0000     0.      0.00 
   3  -6  18     60.85    6.37  0. 1.0000     0.      0.00 
   4  -6  18    144.54    4.26  0. 1.0000     0.      0.00 
   5  -6  18    106.14    3.93  0. 1.0000     0.      0.00 
   6  -6  18      9.55    3.02  0. 1.0000     0.      0.00 
   7  -6  18      0.00    4.21  0. 1.0000     0.      0.00 
   8  -6  18    220.53    6.43  0. 1.0000     0.      0.00 
   9  -6  18     75.89    6.40  0. 1.0000     0.      0.00 
  10  -6  18    167.33    9.58  0. 1.0000     0.      0.00 
  11  -6  18      9.70   11.77  0. 1.0000     0.      0.00 
  12  -6  18     17.03   14.39  0. 1.0000     0.      0.00 
 -10  -5  18     11.63    6.07  0. 1.0000     0.      0.00 
  -9  -5  18     43.53    7.36  0. 1.0000     0.      0.00 
  -8  -5  18    103.72    7.10  0. 1.0000     0.      0.00 
  -7  -5  18     49.90    4.95  0. 1.0000     0.      0.00 
  -6  -5  18      8.89    3.95  0. 1.0000     0.      0.00 
  -5  -5  18     13.27    3.72  0. 1.0000     0.      0.00 
  -4  -5  18     73.06    5.99  0. 1.0000     0.      0.00 
  -3  -5  18      2.42    3.61  0. 1.0000     0.      0.00 
  -2  -5  18    907.86   27.03  0. 1.0000     0.      0.00 
  -1  -5  18    775.90   27.46  0. 1.0000     0.      0.00 
   0  -5  18    113.21    3.70  0. 1.0000     0.      0.00 
   1  -5  18    264.05    4.84  0. 1.0000     0.      0.00 
   2  -5  18    182.04    4.14  0. 1.0000     0.      0.00 
   3  -5  18     88.43    5.62  0. 1.0000     0.      0.00 
   4  -5  18    635.07    8.32  0. 1.0000     0.      0.00 
   5  -5  18    204.54    4.14  0. 1.0000     0.      0.00 
   6  -5  18    113.39    3.92  0. 1.0000     0.      0.00 
   7  -5  18      4.57    4.78  0. 1.0000     0.      0.00 
   8  -5  18      0.00    7.48  0. 1.0000     0.      0.00 
   9  -5  18    793.19   46.52  0. 1.0000     0.      0.00 
  10  -5  18      0.00   40.08  0. 1.0000     0.      0.00 
  11  -5  18      5.63   15.78  0. 1.0000     0.      0.00 
  12  -5  18     20.38   16.28  0. 1.0000     0.      0.00 
 -10  -4  18      7.16    6.54  0. 1.0000     0.      0.00 
  -9  -4  18     13.15    5.36  0. 1.0000     0.      0.00 
  -8  -4  18     22.11    5.87  0. 1.0000     0.      0.00 
  -7  -4  18      6.41    5.75  0. 1.0000     0.      0.00 
  -6  -4  18     19.86    4.92  0. 1.0000     0.      0.00 
  -5  -4  18    290.37   26.25  0. 1.0000     0.      0.00 
  -4  -4  18    157.62   12.56  0. 1.0000     0.      0.00 
  -3  -4  18     22.44    3.73  0. 1.0000     0.      0.00 
  -2  -4  18     23.76    2.63  0. 1.0000     0.      0.00 
  -1  -4  18    351.69    6.43  0. 1.0000     0.      0.00 
   0  -4  18    345.17    6.69  0. 1.0000     0.      0.00 
   1  -4  18      8.01    2.12  0. 1.0000     0.      0.00 
   2  -4  18      5.13    2.23  0. 1.0000     0.      0.00 
   3  -4  18      0.00    4.77  0. 1.0000     0.      0.00 
   4  -4  18    152.78    5.97  0. 1.0000     0.      0.00 
   5  -4  18    927.35   16.07  0. 1.0000     0.      0.00 
   6  -4  18      0.43   16.63  0. 1.0000     0.      0.00 
   7  -4  18      0.00   12.69  0. 1.0000     0.      0.00 
   8  -4  18     13.89    6.43  0. 1.0000     0.      0.00 
   9  -4  18      3.90    9.57  0. 1.0000     0.      0.00 
  10  -4  18     13.66    6.10  0. 1.0000     0.      0.00 
  11  -4  18    239.12    7.32  0. 1.0000     0.      0.00 
  12  -4  18      4.86    5.48  0. 1.0000     0.      0.00 
 -11  -3  18      6.51    7.90  0. 1.0000     0.      0.00 
 -10  -3  18     11.59    7.79  0. 1.0000     0.      0.00 
  -9  -3  18     28.33    9.79  0. 1.0000     0.      0.00 
  -8  -3  18     16.90   28.68  0. 1.0000     0.      0.00 
  -7  -3  18     42.66   12.14  0. 1.0000     0.      0.00 
  -6  -3  18      8.31    4.62  0. 1.0000     0.      0.00 
  -5  -3  18    647.25   10.27  0. 1.0000     0.      0.00 
  -4  -3  18    311.01    5.86  0. 1.0000     0.      0.00 
  -3  -3  18    308.25    5.09  0. 1.0000     0.      0.00 
  -2  -3  18     85.58    2.04  0. 1.0000     0.      0.00 
  -1  -3  18     50.66    2.00  0. 1.0000     0.      0.00 
   0  -3  18    145.48    8.69  0. 1.0000     0.      0.00 
   1  -3  18   1171.90   12.70  0. 1.0000     0.      0.00 
   2  -3  18     29.26    3.13  0. 1.0000     0.      0.00 
   3  -3  18     43.80    9.59  0. 1.0000     0.      0.00 
   4  -3  18      0.00   13.71  0. 1.0000     0.      0.00 
   5  -3  18     56.41    6.88  0. 1.0000     0.      0.00 
   6  -3  18     62.46    3.79  0. 1.0000     0.      0.00 
   7  -3  18    449.99    7.02  0. 1.0000     0.      0.00 
   8  -3  18     28.95    3.55  0. 1.0000     0.      0.00 
   9  -3  18     12.17    4.27  0. 1.0000     0.      0.00 
  10  -3  18     40.37    5.05  0. 1.0000     0.      0.00 
  11  -3  18     55.26    9.12  0. 1.0000     0.      0.00 
  12  -3  18     69.62   13.13  0. 1.0000     0.      0.00 
 -11  -2  18      8.34   20.11  0. 1.0000     0.      0.00 
 -10  -2  18     57.28   12.45  0. 1.0000     0.      0.00 
  -9  -2  18     84.74   10.48  0. 1.0000     0.      0.00 
  -8  -2  18    107.93    7.10  0. 1.0000     0.      0.00 
  -7  -2  18      4.13    3.87  0. 1.0000     0.      0.00 
  -6  -2  18    134.07    4.14  0. 1.0000     0.      0.00 
  -5  -2  18     92.22    3.13  0. 1.0000     0.      0.00 
  -4  -2  18     45.64    3.18  0. 1.0000     0.      0.00 
  -3  -2  18     11.62    2.41  0. 1.0000     0.      0.00 
  -2  -2  18     16.30    2.41  0. 1.0000     0.      0.00 
  -1  -2  18    145.90    3.25  0. 1.0000     0.      0.00 
   0  -2  18    165.94   22.97  0. 1.0000     0.      0.00 
   1  -2  18    499.54   37.78  0. 1.0000     0.      0.00 
   2  -2  18    473.64    9.30  0. 1.0000     0.      0.00 
   3  -2  18    111.13    3.21  0. 1.0000     0.      0.00 
   4  -2  18    196.77    3.89  0. 1.0000     0.      0.00 
   5  -2  18      1.33    2.50  0. 1.0000     0.      0.00 
   6  -2  18    233.15    4.23  0. 1.0000     0.      0.00 
   7  -2  18    522.79    8.55  0. 1.0000     0.      0.00 
   8  -2  18    298.73    5.85  0. 1.0000     0.      0.00 
   9  -2  18      8.61   11.47  0. 1.0000     0.      0.00 
  10  -2  18     15.85   11.69  0. 1.0000     0.      0.00 
  11  -2  18      0.00   33.42  0. 1.0000     0.      0.00 
  12  -2  18     49.82   27.90  0. 1.0000     0.      0.00 
 -11  -1  18     10.00    9.12  0. 1.0000     0.      0.00 
 -10  -1  18    262.00    8.31  0. 1.0000     0.      0.00 
  -9  -1  18    115.26    6.72  0. 1.0000     0.      0.00 
  -8  -1  18     14.64    3.55  0. 1.0000     0.      0.00 
  -7  -1  18     63.71    3.27  0. 1.0000     0.      0.00 
  -6  -1  18     20.22    3.07  0. 1.0000     0.      0.00 
  -5  -1  18    113.24    6.81  0. 1.0000     0.      0.00 
  -4  -1  18    422.95    9.91  0. 1.0000     0.      0.00 
  -3  -1  18    175.53   10.22  0. 1.0000     0.      0.00 
  -2  -1  18    496.01   12.23  0. 1.0000     0.      0.00 
  -1  -1  18    192.04    3.97  0. 1.0000     0.      0.00 
   0  -1  18    216.26    3.66  0. 1.0000     0.      0.00 
   1  -1  18    165.66    2.77  0. 1.0000     0.      0.00 
   2  -1  18    795.58    9.53  0. 1.0000     0.      0.00 
   3  -1  18    467.94    5.93  0. 1.0000     0.      0.00 
   4  -1  18     46.54    2.61  0. 1.0000     0.      0.00 
   5  -1  18     10.81    2.98  0. 1.0000     0.      0.00 
   6  -1  18     97.43    4.58  0. 1.0000     0.      0.00 
   7  -1  18     23.37    6.77  0. 1.0000     0.      0.00 
   8  -1  18    451.66   27.98  0. 1.0000     0.      0.00 
   9  -1  18     13.27   33.61  0. 1.0000     0.      0.00 
  10  -1  18      4.99   15.58  0. 1.0000     0.      0.00 
  11  -1  18     38.72   16.20  0. 1.0000     0.      0.00 
  12  -1  18     17.49    7.96  0. 1.0000     0.      0.00 
 -12   0  18     11.45    5.09  0. 1.0000     0.      0.00 
 -11   0  18      8.11    5.57  0. 1.0000     0.      0.00 
 -10   0  18      7.16    5.03  0. 1.0000     0.      0.00 
  -9   0  18     64.28   10.70  0. 1.0000     0.      0.00 
  -8   0  18     19.59    5.16  0. 1.0000     0.      0.00 
  -7   0  18      7.71    4.99  0. 1.0000     0.      0.00 
  -6   0  18     29.15   11.02  0. 1.0000     0.      0.00 
  -5   0  18    187.03   25.68  0. 1.0000     0.      0.00 
  -4   0  18    261.70    6.89  0. 1.0000     0.      0.00 
  -3   0  18    180.40    3.75  0. 1.0000     0.      0.00 
  -2   0  18    496.53    7.70  0. 1.0000     0.      0.00 
  -1   0  18    196.52    3.09  0. 1.0000     0.      0.00 
   0   0  18    275.86    3.91  0. 1.0000     0.      0.00 
   1   0  18     93.66    2.35  0. 1.0000     0.      0.00 
   2   0  18    703.40    8.68  0. 1.0000     0.      0.00 
   3   0  18      7.39    2.43  0. 1.0000     0.      0.00 
   4   0  18    695.24   14.35  0. 1.0000     0.      0.00 
   5   0  18     43.05   12.01  0. 1.0000     0.      0.00 
   6   0  18      0.00   10.27  0. 1.0000     0.      0.00 
   7   0  18      7.61    8.30  0. 1.0000     0.      0.00 
   8   0  18     67.80    5.86  0. 1.0000     0.      0.00 
   9   0  18     16.42    6.46  0. 1.0000     0.      0.00 
  10   0  18    241.57    6.84  0. 1.0000     0.      0.00 
  11   0  18      9.12    4.89  0. 1.0000     0.      0.00 
 -12   1  18     24.56    7.91  0. 1.0000     0.      0.00 
 -11   1  18     11.79    8.36  0. 1.0000     0.      0.00 
 -10   1  18    114.90   10.30  0. 1.0000     0.      0.00 
  -9   1  18      0.00   49.46  0. 1.0000     0.      0.00 
  -8   1  18    336.74   17.75  0. 1.0000     0.      0.00 
  -7   1  18    235.06    6.68  0. 1.0000     0.      0.00 
  -6   1  18    359.49    5.89  0. 1.0000     0.      0.00 
  -5   1  18    184.31    3.73  0. 1.0000     0.      0.00 
  -4   1  18    201.64    3.72  0. 1.0000     0.      0.00 
  -3   1  18    222.36    4.59  0. 1.0000     0.      0.00 
  -2   1  18    675.32    9.39  0. 1.0000     0.      0.00 
  -1   1  18     28.01    2.27  0. 1.0000     0.      0.00 
   0   1  18    216.87    3.64  0. 1.0000     0.      0.00 
   1   1  18     36.09    5.01  0. 1.0000     0.      0.00 
   2   1  18     72.12   73.14  0. 1.0000     0.      0.00 
   4   1  18    114.23    8.09  0. 1.0000     0.      0.00 
   5   1  18    231.82    5.11  0. 1.0000     0.      0.00 
   6   1  18    173.77    5.43  0. 1.0000     0.      0.00 
   7   1  18     39.01    3.34  0. 1.0000     0.      0.00 
   8   1  18      5.41    3.57  0. 1.0000     0.      0.00 
   9   1  18    349.15    8.51  0. 1.0000     0.      0.00 
  10   1  18     66.04    9.22  0. 1.0000     0.      0.00 
  11   1  18     58.68   12.92  0. 1.0000     0.      0.00 
 -12   2  18     19.48   20.94  0. 1.0000     0.      0.00 
 -11   2  18     17.47   18.90  0. 1.0000     0.      0.00 
 -10   2  18     11.81   10.27  0. 1.0000     0.      0.00 
  -9   2  18      0.44   10.68  0. 1.0000     0.      0.00 
  -8   2  18     52.74    4.59  0. 1.0000     0.      0.00 
  -7   2  18    461.83    8.16  0. 1.0000     0.      0.00 
  -6   2  18    138.65    3.79  0. 1.0000     0.      0.00 
  -5   2  18     34.47    2.53  0. 1.0000     0.      0.00 
  -4   2  18     79.79    3.29  0. 1.0000     0.      0.00 
  -3   2  18      7.39    2.64  0. 1.0000     0.      0.00 
  -2   2  18    320.29    9.39  0. 1.0000     0.      0.00 
   0   2  18    135.39   69.71  0. 1.0000     0.      0.00 
   1   2  18    250.99   10.22  0. 1.0000     0.      0.00 
   2   2  18     13.51    2.65  0. 1.0000     0.      0.00 
   3   2  18     71.29    3.02  0. 1.0000     0.      0.00 
   4   2  18     18.50    2.61  0. 1.0000     0.      0.00 
   5   2  18    988.80   11.23  0. 1.0000     0.      0.00 
   6   2  18    109.20    3.52  0. 1.0000     0.      0.00 
   7   2  18     84.11    4.18  0. 1.0000     0.      0.00 
   8   2  18     15.30    9.76  0. 1.0000     0.      0.00 
   9   2  18     19.43   16.78  0. 1.0000     0.      0.00 
  10   2  18      2.23   41.50  0. 1.0000     0.      0.00 
  11   2  18    103.86   29.18  0. 1.0000     0.      0.00 
 -12   3  18     18.14   10.68  0. 1.0000     0.      0.00 
 -11   3  18    221.64    8.33  0. 1.0000     0.      0.00 
 -10   3  18     25.62    5.77  0. 1.0000     0.      0.00 
  -9   3  18     11.34    6.48  0. 1.0000     0.      0.00 
  -8   3  18     39.77    3.48  0. 1.0000     0.      0.00 
  -7   3  18     45.22    4.35  0. 1.0000     0.      0.00 
  -6   3  18      6.94    3.36  0. 1.0000     0.      0.00 
  -5   3  18    588.84   12.24  0. 1.0000     0.      0.00 
  -4   3  18     57.45   24.32  0. 1.0000     0.      0.00 
  -3   3  18     75.29   13.86  0. 1.0000     0.      0.00 
  -2   3  18     18.61    5.31  0. 1.0000     0.      0.00 
  -1   3  18     45.06    3.50  0. 1.0000     0.      0.00 
   0   3  18    381.43    5.33  0. 1.0000     0.      0.00 
   1   3  18    674.92    7.47  0. 1.0000     0.      0.00 
   2   3  18    144.70    3.23  0. 1.0000     0.      0.00 
   3   3  18     12.38    1.94  0. 1.0000     0.      0.00 
   4   3  18     98.64    3.50  0. 1.0000     0.      0.00 
   5   3  18    453.02    8.32  0. 1.0000     0.      0.00 
   6   3  18    126.89    9.89  0. 1.0000     0.      0.00 
   7   3  18    159.65   37.31  0. 1.0000     0.      0.00 
   9   3  18     16.29   27.09  0. 1.0000     0.      0.00 
  10   3  18      0.00   16.57  0. 1.0000     0.      0.00 
 -12   4  18     14.05    6.54  0. 1.0000     0.      0.00 
 -11   4  18     33.15    6.12  0. 1.0000     0.      0.00 
 -10   4  18      8.06    7.21  0. 1.0000     0.      0.00 
  -9   4  18     15.69    7.76  0. 1.0000     0.      0.00 
  -8   4  18      0.40    8.76  0. 1.0000     0.      0.00 
  -7   4  18     32.89   21.94  0. 1.0000     0.      0.00 
  -6   4  18      0.00   19.46  0. 1.0000     0.      0.00 
  -5   4  18    640.41   11.92  0. 1.0000     0.      0.00 
  -4   4  18    423.53    6.60  0. 1.0000     0.      0.00 
  -3   4  18    133.43    3.22  0. 1.0000     0.      0.00 
  -2   4  18    190.93    4.07  0. 1.0000     0.      0.00 
  -1   4  18    201.31    3.56  0. 1.0000     0.      0.00 
   0   4  18    255.94    6.06  0. 1.0000     0.      0.00 
   1   4  18    878.70   10.10  0. 1.0000     0.      0.00 
   2   4  18    140.47    3.45  0. 1.0000     0.      0.00 
   3   4  18     71.93   14.83  0. 1.0000     0.      0.00 
   6   4  18    169.38   37.25  0. 1.0000     0.      0.00 
   7   4  18     40.15   10.67  0. 1.0000     0.      0.00 
   8   4  18     86.21    7.10  0. 1.0000     0.      0.00 
   9   4  18     37.09    6.65  0. 1.0000     0.      0.00 
  10   4  18      6.21    8.14  0. 1.0000     0.      0.00 
 -12   5  18     20.70   11.16  0. 1.0000     0.      0.00 
 -11   5  18     14.91   14.53  0. 1.0000     0.      0.00 
 -10   5  18     93.27   23.75  0. 1.0000     0.      0.00 
  -9   5  18     87.47   26.92  0. 1.0000     0.      0.00 
  -8   5  18    110.74   11.31  0. 1.0000     0.      0.00 
  -7   5  18     72.23    5.09  0. 1.0000     0.      0.00 
  -6   5  18     29.99    4.35  0. 1.0000     0.      0.00 
  -5   5  18     56.62    3.26  0. 1.0000     0.      0.00 
  -4   5  18    475.83    5.90  0. 1.0000     0.      0.00 
  -3   5  18    181.76    3.70  0. 1.0000     0.      0.00 
  -2   5  18      5.80    2.63  0. 1.0000     0.      0.00 
  -1   5  18      3.99    3.04  0. 1.0000     0.      0.00 
   0   5  18     95.95   13.78  0. 1.0000     0.      0.00 
   3   5  18      0.00   16.74  0. 1.0000     0.      0.00 
   4   5  18     96.41    4.49  0. 1.0000     0.      0.00 
   5   5  18      9.57    4.35  0. 1.0000     0.      0.00 
   6   5  18      0.18    6.39  0. 1.0000     0.      0.00 
   7   5  18      6.22    4.79  0. 1.0000     0.      0.00 
   8   5  18    484.55   10.95  0. 1.0000     0.      0.00 
   9   5  18      3.20   10.76  0. 1.0000     0.      0.00 
 -11   6  18      0.00   11.65  0. 1.0000     0.      0.00 
 -10   6  18     51.42    8.49  0. 1.0000     0.      0.00 
  -9   6  18      0.04    5.96  0. 1.0000     0.      0.00 
  -8   6  18    307.26    9.19  0. 1.0000     0.      0.00 
  -7   6  18      8.55    2.70  0. 1.0000     0.      0.00 
  -6   6  18    100.65    4.30  0. 1.0000     0.      0.00 
  -5   6  18     29.24    3.58  0. 1.0000     0.      0.00 
  -4   6  18    146.26    4.66  0. 1.0000     0.      0.00 
  -3   6  18      1.80    8.93  0. 1.0000     0.      0.00 
  -2   6  18    893.82   44.24  0. 1.0000     0.      0.00 
  -1   6  18     96.31   35.90  0. 1.0000     0.      0.00 
   0   6  18     38.77    8.24  0. 1.0000     0.      0.00 
   1   6  18      0.00    5.26  0. 1.0000     0.      0.00 
   2   6  18      0.00    3.82  0. 1.0000     0.      0.00 
   3   6  18    170.80    4.31  0. 1.0000     0.      0.00 
   4   6  18    475.52    8.37  0. 1.0000     0.      0.00 
   5   6  18     22.41    5.03  0. 1.0000     0.      0.00 
   6   6  18      6.99    6.71  0. 1.0000     0.      0.00 
   7   6  18    120.78   14.83  0. 1.0000     0.      0.00 
   8   6  18     40.49   20.25  0. 1.0000     0.      0.00 
 -11   7  18     10.97    7.80  0. 1.0000     0.      0.00 
 -10   7  18      9.59    5.36  0. 1.0000     0.      0.00 
  -9   7  18     17.40    5.63  0. 1.0000     0.      0.00 
  -8   7  18     14.65    5.75  0. 1.0000     0.      0.00 
  -7   7  18     12.30    9.39  0. 1.0000     0.      0.00 
  -6   7  18     57.00    9.68  0. 1.0000     0.      0.00 
  -5   7  18      0.00   23.01  0. 1.0000     0.      0.00 
  -4   7  18     93.36   29.38  0. 1.0000     0.      0.00 
  -3   7  18     67.44    8.81  0. 1.0000     0.      0.00 
  -2   7  18    135.47    6.02  0. 1.0000     0.      0.00 
  -1   7  18    333.13    5.80  0. 1.0000     0.      0.00 
   0   7  18     47.84    3.43  0. 1.0000     0.      0.00 
   1   7  18     60.01    3.96  0. 1.0000     0.      0.00 
   2   7  18      0.00    3.49  0. 1.0000     0.      0.00 
   3   7  18    377.20    7.29  0. 1.0000     0.      0.00 
   4   7  18    194.63    9.86  0. 1.0000     0.      0.00 
   5   7  18    110.21   36.67  0. 1.0000     0.      0.00 
 -11   8  18     15.55    9.29  0. 1.0000     0.      0.00 
 -10   8  18     26.50   11.97  0. 1.0000     0.      0.00 
  -9   8  18     31.84   19.79  0. 1.0000     0.      0.00 
  -8   8  18      0.00   30.01  0. 1.0000     0.      0.00 
  -7   8  18    374.47   29.06  0. 1.0000     0.      0.00 
  -5   8  18    176.14    8.66  0. 1.0000     0.      0.00 
  -4   8  18      1.32    4.04  0. 1.0000     0.      0.00 
  -3   8  18     24.57    4.14  0. 1.0000     0.      0.00 
  -2   8  18     56.70    2.91  0. 1.0000     0.      0.00 
  -1   8  18    503.70    8.32  0. 1.0000     0.      0.00 
   0   8  18    158.19    5.07  0. 1.0000     0.      0.00 
   1   8  18     18.30    9.55  0. 1.0000     0.      0.00 
   5   8  18     88.67   32.97  0. 1.0000     0.      0.00 
   6   8  18     13.72   13.69  0. 1.0000     0.      0.00 
   7   8  18     22.74   11.23  0. 1.0000     0.      0.00 
 -10   9  18     33.96   29.32  0. 1.0000     0.      0.00 
  -9   9  18      0.00   13.25  0. 1.0000     0.      0.00 
  -8   9  18     15.45    9.48  0. 1.0000     0.      0.00 
  -7   9  18     87.11    7.54  0. 1.0000     0.      0.00 
  -6   9  18     49.67    4.72  0. 1.0000     0.      0.00 
  -5   9  18    192.81    5.44  0. 1.0000     0.      0.00 
  -4   9  18     11.38    7.18  0. 1.0000     0.      0.00 
  -3   9  18     21.76    8.06  0. 1.0000     0.      0.00 
  -2   9  18      0.05   11.29  0. 1.0000     0.      0.00 
  -1   9  18    306.69   37.37  0. 1.0000     0.      0.00 
   2   9  18      6.36   15.55  0. 1.0000     0.      0.00 
   3   9  18      5.63   11.72  0. 1.0000     0.      0.00 
   4   9  18      0.00    8.47  0. 1.0000     0.      0.00 
   5   9  18      5.56    8.04  0. 1.0000     0.      0.00 
  -9  10  18     25.19    7.00  0. 1.0000     0.      0.00 
  -8  10  18     11.19    4.44  0. 1.0000     0.      0.00 
  -7  10  18     38.51    5.92  0. 1.0000     0.      0.00 
  -6  10  18     28.44    9.42  0. 1.0000     0.      0.00 
  -5  10  18     56.01   16.38  0. 1.0000     0.      0.00 
  -4  10  18     57.04   16.83  0. 1.0000     0.      0.00 
  -3  10  18      0.00   54.75  0. 1.0000     0.      0.00 
  -2  10  18      0.00   49.46  0. 1.0000     0.      0.00 
  -1  10  18      0.00   14.03  0. 1.0000     0.      0.00 
   0  10  18     88.18   11.70  0. 1.0000     0.      0.00 
   1  10  18      0.00    7.28  0. 1.0000     0.      0.00 
   2  10  18    133.28    6.35  0. 1.0000     0.      0.00 
   3  10  18     34.55    5.88  0. 1.0000     0.      0.00 
   4  10  18     23.24    8.50  0. 1.0000     0.      0.00 
  -8  11  18     14.58   23.24  0. 1.0000     0.      0.00 
  -7  11  18     27.05   26.19  0. 1.0000     0.      0.00 
  -6  11  18      0.00   43.57  0. 1.0000     0.      0.00 
  -5  11  18      0.00   54.67  0. 1.0000     0.      0.00 
  -4  11  18    346.97   19.88  0. 1.0000     0.      0.00 
  -3  11  18      0.00   12.55  0. 1.0000     0.      0.00 
  -2  11  18     69.81   10.41  0. 1.0000     0.      0.00 
  -1  11  18      9.26    4.98  0. 1.0000     0.      0.00 
   0  11  18      4.89    4.48  0. 1.0000     0.      0.00 
   1  11  18      0.00    6.36  0. 1.0000     0.      0.00 
   2  11  18    278.76   11.04  0. 1.0000     0.      0.00 
  -6  12  18      9.35   13.04  0. 1.0000     0.      0.00 
  -5  12  18     13.48   10.77  0. 1.0000     0.      0.00 
  -4  12  18      5.62    6.64  0. 1.0000     0.      0.00 
  -3  12  18     23.93    5.34  0. 1.0000     0.      0.00 
  -2  12  18    118.98    7.15  0. 1.0000     0.      0.00 
  -1  12  18      4.15    9.98  0. 1.0000     0.      0.00 
   0  12  18      3.62   16.61  0. 1.0000     0.      0.00 
   1 -13  19     52.69   35.74  0. 1.0000     0.      0.00 
   2 -13  19      6.22   14.35  0. 1.0000     0.      0.00 
   3 -13  19    203.72   10.85  0. 1.0000     0.      0.00 
   4 -13  19     40.41    8.66  0. 1.0000     0.      0.00 
   5 -13  19     34.01   14.59  0. 1.0000     0.      0.00 
  -2 -12  19     39.30   31.28  0. 1.0000     0.      0.00 
  -1 -12  19     19.68   15.19  0. 1.0000     0.      0.00 
   0 -12  19     14.50    8.65  0. 1.0000     0.      0.00 
   1 -12  19     24.27    6.87  0. 1.0000     0.      0.00 
   2 -12  19     44.33    6.01  0. 1.0000     0.      0.00 
   3 -12  19     52.54    4.74  0. 1.0000     0.      0.00 
   4 -12  19    125.86    7.18  0. 1.0000     0.      0.00 
   5 -12  19      0.00    7.29  0. 1.0000     0.      0.00 
   6 -12  19      0.93   10.88  0. 1.0000     0.      0.00 
   7 -12  19     13.38   14.59  0. 1.0000     0.      0.00 
  -4 -11  19     24.74   32.33  0. 1.0000     0.      0.00 
  -3 -11  19     11.17   10.51  0. 1.0000     0.      0.00 
  -2 -11  19    112.58    8.50  0. 1.0000     0.      0.00 
  -1 -11  19     82.51    6.69  0. 1.0000     0.      0.00 
   0 -11  19     47.70    4.83  0. 1.0000     0.      0.00 
   1 -11  19     82.48    5.64  0. 1.0000     0.      0.00 
   2 -11  19      0.00    7.16  0. 1.0000     0.      0.00 
   3 -11  19     89.23    7.32  0. 1.0000     0.      0.00 
   4 -11  19    148.05   13.19  0. 1.0000     0.      0.00 
   5 -11  19      4.29   19.37  0. 1.0000     0.      0.00 
   6 -11  19    211.85   25.40  0. 1.0000     0.      0.00 
   7 -11  19     10.68   15.19  0. 1.0000     0.      0.00 
   8 -11  19     20.86    8.68  0. 1.0000     0.      0.00 
   9 -11  19      7.26    8.15  0. 1.0000     0.      0.00 
  -5 -10  19      3.71   10.67  0. 1.0000     0.      0.00 
  -4 -10  19     18.44    7.75  0. 1.0000     0.      0.00 
  -3 -10  19     47.57    6.15  0. 1.0000     0.      0.00 
  -2 -10  19    467.75   10.66  0. 1.0000     0.      0.00 
  -1 -10  19      0.00    6.76  0. 1.0000     0.      0.00 
   0 -10  19    284.96    8.72  0. 1.0000     0.      0.00 
   1 -10  19     72.35   10.73  0. 1.0000     0.      0.00 
   2 -10  19      0.00   27.82  0. 1.0000     0.      0.00 
   4 -10  19      0.00    7.64  0. 1.0000     0.      0.00 
   5 -10  19      0.00    6.29  0. 1.0000     0.      0.00 
   6 -10  19     66.02    6.61  0. 1.0000     0.      0.00 
   7 -10  19     79.36    5.63  0. 1.0000     0.      0.00 
   8 -10  19     35.48    4.96  0. 1.0000     0.      0.00 
   9 -10  19      8.12    7.43  0. 1.0000     0.      0.00 
  10 -10  19      0.00    9.27  0. 1.0000     0.      0.00 
  -6  -9  19    241.42   10.00  0. 1.0000     0.      0.00 
  -5  -9  19     12.10    6.86  0. 1.0000     0.      0.00 
  -4  -9  19     29.49    8.00  0. 1.0000     0.      0.00 
  -3  -9  19    144.57    8.34  0. 1.0000     0.      0.00 
  -2  -9  19      0.00   11.29  0. 1.0000     0.      0.00 
  -1  -9  19      0.97   24.72  0. 1.0000     0.      0.00 
   0  -9  19    137.62   19.26  0. 1.0000     0.      0.00 
   1  -9  19      0.00    6.61  0. 1.0000     0.      0.00 
   2  -9  19    337.80    7.11  0. 1.0000     0.      0.00 
   3  -9  19     53.04    5.40  0. 1.0000     0.      0.00 
   4  -9  19     67.86    5.04  0. 1.0000     0.      0.00 
   5  -9  19     92.67    5.96  0. 1.0000     0.      0.00 
   6  -9  19    108.36    7.17  0. 1.0000     0.      0.00 
   7  -9  19    277.35    7.89  0. 1.0000     0.      0.00 
   8  -9  19      9.60    8.06  0. 1.0000     0.      0.00 
   9  -9  19     78.32   12.64  0. 1.0000     0.      0.00 
  10  -9  19     13.28   28.53  0. 1.0000     0.      0.00 
  -7  -8  19     16.81    9.61  0. 1.0000     0.      0.00 
  -6  -8  19     56.02    8.83  0. 1.0000     0.      0.00 
  -5  -8  19      7.65   14.46  0. 1.0000     0.      0.00 
  -4  -8  19      0.00   32.11  0. 1.0000     0.      0.00 
  -3  -8  19     34.41   27.08  0. 1.0000     0.      0.00 
  -2  -8  19     36.81   25.13  0. 1.0000     0.      0.00 
  -1  -8  19      3.89    4.51  0. 1.0000     0.      0.00 
   0  -8  19     89.19    4.66  0. 1.0000     0.      0.00 
   1  -8  19    510.47    7.00  0. 1.0000     0.      0.00 
   2  -8  19     35.76    2.95  0. 1.0000     0.      0.00 
   3  -8  19    635.03    8.48  0. 1.0000     0.      0.00 
   4  -8  19      0.00    4.70  0. 1.0000     0.      0.00 
   5  -8  19    131.57    5.40  0. 1.0000     0.      0.00 
   6  -8  19    130.56   12.91  0. 1.0000     0.      0.00 
   7  -8  19      3.36   19.26  0. 1.0000     0.      0.00 
   8  -8  19     24.96   22.47  0. 1.0000     0.      0.00 
   9  -8  19     87.52   12.67  0. 1.0000     0.      0.00 
  10  -8  19      8.42    9.83  0. 1.0000     0.      0.00 
  11  -8  19     24.43    8.91  0. 1.0000     0.      0.00 
  -8  -7  19    204.47   21.33  0. 1.0000     0.      0.00 
  -7  -7  19     26.88   30.00  0. 1.0000     0.      0.00 
  -6  -7  19     14.78   21.37  0. 1.0000     0.      0.00 
  -5  -7  19     94.60    8.60  0. 1.0000     0.      0.00 
  -4  -7  19     38.34    7.67  0. 1.0000     0.      0.00 
  -3  -7  19    358.97    7.12  0. 1.0000     0.      0.00 
  -2  -7  19     36.37    3.46  0. 1.0000     0.      0.00 
  -1  -7  19      6.20    2.60  0. 1.0000     0.      0.00 
   0  -7  19    165.80    4.39  0. 1.0000     0.      0.00 
   1  -7  19     61.33    5.11  0. 1.0000     0.      0.00 
   2  -7  19     44.32    4.50  0. 1.0000     0.      0.00 
   3  -7  19    546.47   10.87  0. 1.0000     0.      0.00 
   4  -7  19      0.00   16.74  0. 1.0000     0.      0.00 
   6  -7  19      4.33    6.95  0. 1.0000     0.      0.00 
   7  -7  19      3.20    7.74  0. 1.0000     0.      0.00 
   8  -7  19     21.12    6.03  0. 1.0000     0.      0.00 
   9  -7  19     80.51    5.34  0. 1.0000     0.      0.00 
  10  -7  19     48.91    4.66  0. 1.0000     0.      0.00 
  11  -7  19      7.11    6.69  0. 1.0000     0.      0.00 
  -9  -6  19     23.03   16.86  0. 1.0000     0.      0.00 
  -8  -6  19    150.42   11.87  0. 1.0000     0.      0.00 
  -7  -6  19     17.94    8.41  0. 1.0000     0.      0.00 
  -6  -6  19      7.85    6.41  0. 1.0000     0.      0.00 
  -5  -6  19     11.69    5.00  0. 1.0000     0.      0.00 
  -4  -6  19      4.59    3.45  0. 1.0000     0.      0.00 
  -3  -6  19    571.63   10.21  0. 1.0000     0.      0.00 
  -2  -6  19    134.66    3.86  0. 1.0000     0.      0.00 
  -1  -6  19     49.90    3.63  0. 1.0000     0.      0.00 
   0  -6  19      0.00    4.69  0. 1.0000     0.      0.00 
   1  -6  19      0.00   15.61  0. 1.0000     0.      0.00 
   2  -6  19      2.19   20.43  0. 1.0000     0.      0.00 
   3  -6  19     23.90    5.11  0. 1.0000     0.      0.00 
   4  -6  19     82.48    4.28  0. 1.0000     0.      0.00 
   5  -6  19    116.83    4.22  0. 1.0000     0.      0.00 
   6  -6  19    346.04    5.86  0. 1.0000     0.      0.00 
   7  -6  19     15.73    2.96  0. 1.0000     0.      0.00 
   8  -6  19    199.06    8.61  0. 1.0000     0.      0.00 
   9  -6  19    198.68    7.09  0. 1.0000     0.      0.00 
  10  -6  19     95.75    9.10  0. 1.0000     0.      0.00 
  11  -6  19     76.31   12.95  0. 1.0000     0.      0.00 
  -9  -5  19     35.74    8.01  0. 1.0000     0.      0.00 
  -8  -5  19     10.47    6.36  0. 1.0000     0.      0.00 
  -7  -5  19    112.81    6.92  0. 1.0000     0.      0.00 
  -6  -5  19      4.38    5.77  0. 1.0000     0.      0.00 
  -5  -5  19    479.80    7.66  0. 1.0000     0.      0.00 
  -4  -5  19     34.44    4.01  0. 1.0000     0.      0.00 
  -3  -5  19    135.98    7.85  0. 1.0000     0.      0.00 
  -2  -5  19    280.91   14.56  0. 1.0000     0.      0.00 
  -1  -5  19      0.00   16.10  0. 1.0000     0.      0.00 
   0  -5  19    238.21    5.52  0. 1.0000     0.      0.00 
   1  -5  19     39.55    3.24  0. 1.0000     0.      0.00 
   2  -5  19      4.43    2.78  0. 1.0000     0.      0.00 
   3  -5  19    126.25    3.66  0. 1.0000     0.      0.00 
   4  -5  19    105.29    4.06  0. 1.0000     0.      0.00 
   5  -5  19    132.42    3.63  0. 1.0000     0.      0.00 
   6  -5  19    520.03    7.70  0. 1.0000     0.      0.00 
   7  -5  19      0.00    4.84  0. 1.0000     0.      0.00 
   8  -5  19    273.50   13.14  0. 1.0000     0.      0.00 
   9  -5  19      0.00   20.47  0. 1.0000     0.      0.00 
  10  -5  19     11.72   29.45  0. 1.0000     0.      0.00 
  11  -5  19     18.38   16.43  0. 1.0000     0.      0.00 
  12  -5  19     18.23   10.10  0. 1.0000     0.      0.00 
 -10  -4  19      8.80    6.92  0. 1.0000     0.      0.00 
  -9  -4  19     61.16    5.84  0. 1.0000     0.      0.00 
  -8  -4  19    365.33    9.06  0. 1.0000     0.      0.00 
  -7  -4  19      5.62    6.26  0. 1.0000     0.      0.00 
  -6  -4  19     59.44    5.43  0. 1.0000     0.      0.00 
  -5  -4  19    351.21   16.59  0. 1.0000     0.      0.00 
  -4  -4  19      3.49    8.52  0. 1.0000     0.      0.00 
  -3  -4  19    409.63    7.14  0. 1.0000     0.      0.00 
  -2  -4  19      7.57    2.87  0. 1.0000     0.      0.00 
  -1  -4  19     72.42    4.59  0. 1.0000     0.      0.00 
   0  -4  19    785.92    8.78  0. 1.0000     0.      0.00 
   1  -4  19    236.66    4.22  0. 1.0000     0.      0.00 
   2  -4  19    253.69    4.68  0. 1.0000     0.      0.00 
   3  -4  19     42.44    2.91  0. 1.0000     0.      0.00 
   4  -4  19     37.11    4.02  0. 1.0000     0.      0.00 
   5  -4  19     33.74    6.22  0. 1.0000     0.      0.00 
   6  -4  19     44.35   18.44  0. 1.0000     0.      0.00 
   7  -4  19     25.31   19.40  0. 1.0000     0.      0.00 
   8  -4  19    134.63    9.82  0. 1.0000     0.      0.00 
   9  -4  19     36.67    9.69  0. 1.0000     0.      0.00 
  10  -4  19     34.24    7.39  0. 1.0000     0.      0.00 
  11  -4  19     88.44    6.67  0. 1.0000     0.      0.00 
  12  -4  19     59.19    5.93  0. 1.0000     0.      0.00 
 -10  -3  19     41.43    7.82  0. 1.0000     0.      0.00 
  -9  -3  19    361.58   11.33  0. 1.0000     0.      0.00 
  -8  -3  19     81.53   20.40  0. 1.0000     0.      0.00 
  -7  -3  19    159.47   10.86  0. 1.0000     0.      0.00 
  -6  -3  19    251.57    7.13  0. 1.0000     0.      0.00 
  -5  -3  19    101.10    4.94  0. 1.0000     0.      0.00 
  -4  -3  19    178.52    3.97  0. 1.0000     0.      0.00 
  -3  -3  19      8.79    2.40  0. 1.0000     0.      0.00 
  -2  -3  19    365.53    4.67  0. 1.0000     0.      0.00 
  -1  -3  19     15.44    3.20  0. 1.0000     0.      0.00 
   0  -3  19    108.94    3.42  0. 1.0000     0.      0.00 
   1  -3  19    410.54    5.59  0. 1.0000     0.      0.00 
   2  -3  19    147.11    4.08  0. 1.0000     0.      0.00 
   3  -3  19    262.75   14.07  0. 1.0000     0.      0.00 
   4  -3  19      0.00   14.38  0. 1.0000     0.      0.00 
   5  -3  19     35.07    5.56  0. 1.0000     0.      0.00 
   6  -3  19     66.06    4.05  0. 1.0000     0.      0.00 
   7  -3  19     55.36    3.93  0. 1.0000     0.      0.00 
   8  -3  19     67.26    4.11  0. 1.0000     0.      0.00 
   9  -3  19    135.25    5.10  0. 1.0000     0.      0.00 
  10  -3  19      7.64    5.18  0. 1.0000     0.      0.00 
  11  -3  19     53.22    9.54  0. 1.0000     0.      0.00 
  12  -3  19      9.44   13.31  0. 1.0000     0.      0.00 
 -11  -2  19    100.34   22.99  0. 1.0000     0.      0.00 
 -10  -2  19      0.00   10.61  0. 1.0000     0.      0.00 
  -9  -2  19    156.67   10.85  0. 1.0000     0.      0.00 
  -8  -2  19     14.92    6.61  0. 1.0000     0.      0.00 
  -7  -2  19     21.63    4.33  0. 1.0000     0.      0.00 
  -6  -2  19     76.16    3.75  0. 1.0000     0.      0.00 
  -5  -2  19    265.51    6.82  0. 1.0000     0.      0.00 
  -4  -2  19    139.29    3.15  0. 1.0000     0.      0.00 
  -3  -2  19    367.91    5.64  0. 1.0000     0.      0.00 
  -2  -2  19    305.38    4.23  0. 1.0000     0.      0.00 
  -1  -2  19    164.35    4.77  0. 1.0000     0.      0.00 
   0  -2  19    962.59   41.39  0. 1.0000     0.      0.00 
   1  -2  19    254.22   35.83  0. 1.0000     0.      0.00 
   2  -2  19    284.69    6.40  0. 1.0000     0.      0.00 
   3  -2  19    552.20    7.75  0. 1.0000     0.      0.00 
   4  -2  19    164.03    3.50  0. 1.0000     0.      0.00 
   5  -2  19    150.72    3.59  0. 1.0000     0.      0.00 
   6  -2  19    102.93    3.37  0. 1.0000     0.      0.00 
   7  -2  19      2.93    3.35  0. 1.0000     0.      0.00 
   8  -2  19     38.55    4.56  0. 1.0000     0.      0.00 
   9  -2  19     32.12   10.01  0. 1.0000     0.      0.00 
  10  -2  19      2.66   11.61  0. 1.0000     0.      0.00 
  11  -2  19     22.88   33.57  0. 1.0000     0.      0.00 
 -11  -1  19     31.14    9.58  0. 1.0000     0.      0.00 
 -10  -1  19      2.52    6.36  0. 1.0000     0.      0.00 
  -9  -1  19     25.93    6.67  0. 1.0000     0.      0.00 
  -8  -1  19      7.46    4.06  0. 1.0000     0.      0.00 
  -7  -1  19     20.25    3.32  0. 1.0000     0.      0.00 
  -6  -1  19    571.96    8.17  0. 1.0000     0.      0.00 
  -5  -1  19    329.44    6.21  0. 1.0000     0.      0.00 
  -4  -1  19    256.92    5.65  0. 1.0000     0.      0.00 
  -3  -1  19   1232.24   32.08  0. 1.0000     0.      0.00 
  -2  -1  19    100.36   10.93  0. 1.0000     0.      0.00 
  -1  -1  19    336.54    6.35  0. 1.0000     0.      0.00 
   0  -1  19    100.48    4.66  0. 1.0000     0.      0.00 
   1  -1  19     42.12    2.39  0. 1.0000     0.      0.00 
   2  -1  19     41.62    2.18  0. 1.0000     0.      0.00 
   3  -1  19     18.45    3.60  0. 1.0000     0.      0.00 
   4  -1  19     21.02    2.45  0. 1.0000     0.      0.00 
   5  -1  19    137.86    3.57  0. 1.0000     0.      0.00 
   6  -1  19    316.67    6.54  0. 1.0000     0.      0.00 
   7  -1  19     14.32    6.94  0. 1.0000     0.      0.00 
   8  -1  19     53.54   40.82  0. 1.0000     0.      0.00 
  10  -1  19     30.24   16.26  0. 1.0000     0.      0.00 
  11  -1  19     13.13   14.76  0. 1.0000     0.      0.00 
 -11   0  19     11.10    5.91  0. 1.0000     0.      0.00 
 -10   0  19     34.14    5.63  0. 1.0000     0.      0.00 
  -9   0  19    288.40    8.71  0. 1.0000     0.      0.00 
  -8   0  19      1.40    5.81  0. 1.0000     0.      0.00 
  -7   0  19      7.92    5.67  0. 1.0000     0.      0.00 
  -6   0  19    326.23   16.38  0. 1.0000     0.      0.00 
  -5   0  19     87.52    9.83  0. 1.0000     0.      0.00 
  -4   0  19    408.35    7.63  0. 1.0000     0.      0.00 
  -3   0  19     52.09    5.08  0. 1.0000     0.      0.00 
  -2   0  19     18.08    2.68  0. 1.0000     0.      0.00 
  -1   0  19    311.67    3.99  0. 1.0000     0.      0.00 
   0   0  19    252.12    3.75  0. 1.0000     0.      0.00 
   1   0  19     26.43    2.17  0. 1.0000     0.      0.00 
   2   0  19    279.23    3.94  0. 1.0000     0.      0.00 
   3   0  19   1012.19   11.19  0. 1.0000     0.      0.00 
   4   0  19    281.52    9.36  0. 1.0000     0.      0.00 
   5   0  19     56.74   23.19  0. 1.0000     0.      0.00 
   6   0  19    227.35   17.10  0. 1.0000     0.      0.00 
   7   0  19     60.96   10.07  0. 1.0000     0.      0.00 
   8   0  19    135.36   11.14  0. 1.0000     0.      0.00 
   9   0  19     33.29    6.58  0. 1.0000     0.      0.00 
  10   0  19     15.87    5.63  0. 1.0000     0.      0.00 
  11   0  19     26.30    5.32  0. 1.0000     0.      0.00 
 -12   1  19      0.00   50.19  0. 1.0000     0.      0.00 
 -11   1  19    170.96    9.25  0. 1.0000     0.      0.00 
 -10   1  19      4.89   10.07  0. 1.0000     0.      0.00 
  -9   1  19      1.89   20.21  0. 1.0000     0.      0.00 
  -8   1  19     56.89   16.80  0. 1.0000     0.      0.00 
  -7   1  19     10.56    5.39  0. 1.0000     0.      0.00 
  -6   1  19     43.96    4.05  0. 1.0000     0.      0.00 
  -5   1  19      8.43    3.08  0. 1.0000     0.      0.00 
  -4   1  19     33.01    2.62  0. 1.0000     0.      0.00 
  -3   1  19    825.47    8.71  0. 1.0000     0.      0.00 
  -2   1  19     97.19    2.52  0. 1.0000     0.      0.00 
  -1   1  19    193.12    3.30  0. 1.0000     0.      0.00 
   0   1  19    985.16   10.68  0. 1.0000     0.      0.00 
   1   1  19     35.78    8.41  0. 1.0000     0.      0.00 
   2   1  19    362.24   83.03  0. 1.0000     0.      0.00 
   4   1  19    129.26   11.97  0. 1.0000     0.      0.00 
   5   1  19    137.28    4.00  0. 1.0000     0.      0.00 
   6   1  19     47.47    3.57  0. 1.0000     0.      0.00 
   7   1  19      1.55    4.34  0. 1.0000     0.      0.00 
   8   1  19     90.95    4.63  0. 1.0000     0.      0.00 
   9   1  19    143.52    6.77  0. 1.0000     0.      0.00 
  10   1  19      5.21    8.66  0. 1.0000     0.      0.00 
  11   1  19     27.08   13.09  0. 1.0000     0.      0.00 
 -12   2  19     24.67   17.79  0. 1.0000     0.      0.00 
 -11   2  19    254.91   21.51  0. 1.0000     0.      0.00 
 -10   2  19     10.20    9.94  0. 1.0000     0.      0.00 
  -9   2  19    301.04   10.54  0. 1.0000     0.      0.00 
  -8   2  19     10.70    4.43  0. 1.0000     0.      0.00 
  -7   2  19    140.16    4.14  0. 1.0000     0.      0.00 
  -6   2  19    203.39    4.03  0. 1.0000     0.      0.00 
  -5   2  19     49.36    2.88  0. 1.0000     0.      0.00 
  -4   2  19      6.68    2.93  0. 1.0000     0.      0.00 
  -3   2  19    177.56    5.32  0. 1.0000     0.      0.00 
  -2   2  19      0.00    5.96  0. 1.0000     0.      0.00 
   1   2  19     27.97   11.03  0. 1.0000     0.      0.00 
   2   2  19    468.85    6.65  0. 1.0000     0.      0.00 
   3   2  19     29.97    4.89  0. 1.0000     0.      0.00 
   4   2  19      0.69    2.78  0. 1.0000     0.      0.00 
   5   2  19    122.67    4.20  0. 1.0000     0.      0.00 
   6   2  19    287.29    5.22  0. 1.0000     0.      0.00 
   7   2  19     10.60    5.11  0. 1.0000     0.      0.00 
   8   2  19      0.01   10.07  0. 1.0000     0.      0.00 
   9   2  19     33.39   15.97  0. 1.0000     0.      0.00 
 -12   3  19     26.35    8.54  0. 1.0000     0.      0.00 
 -11   3  19     59.01    7.37  0. 1.0000     0.      0.00 
 -10   3  19     13.53    5.84  0. 1.0000     0.      0.00 
  -9   3  19     69.49    5.55  0. 1.0000     0.      0.00 
  -8   3  19    127.17    4.31  0. 1.0000     0.      0.00 
  -7   3  19     62.87    3.93  0. 1.0000     0.      0.00 
  -6   3  19      8.69    3.69  0. 1.0000     0.      0.00 
  -5   3  19      5.01    5.49  0. 1.0000     0.      0.00 
  -4   3  19    173.41   23.61  0. 1.0000     0.      0.00 
  -3   3  19     12.73    9.32  0. 1.0000     0.      0.00 
  -2   3  19      0.00    6.98  0. 1.0000     0.      0.00 
  -1   3  19     31.82    2.78  0. 1.0000     0.      0.00 
   0   3  19    211.04    4.65  0. 1.0000     0.      0.00 
   1   3  19      0.00    2.81  0. 1.0000     0.      0.00 
   2   3  19     23.58    1.67  0. 1.0000     0.      0.00 
   3   3  19    121.63    4.29  0. 1.0000     0.      0.00 
   4   3  19     47.52    3.36  0. 1.0000     0.      0.00 
   5   3  19    208.75    7.11  0. 1.0000     0.      0.00 
   6   3  19    131.91   10.90  0. 1.0000     0.      0.00 
   9   3  19     42.18   27.83  0. 1.0000     0.      0.00 
  10   3  19      2.92   15.08  0. 1.0000     0.      0.00 
 -12   4  19     17.23    6.82  0. 1.0000     0.      0.00 
 -11   4  19      3.60    5.99  0. 1.0000     0.      0.00 
 -10   4  19     40.10    6.86  0. 1.0000     0.      0.00 
  -9   4  19      5.73    7.43  0. 1.0000     0.      0.00 
  -8   4  19    296.34   16.72  0. 1.0000     0.      0.00 
  -7   4  19     22.41   20.58  0. 1.0000     0.      0.00 
  -6   4  19    717.42   69.14  0. 1.0000     0.      0.00 
  -5   4  19     18.16    5.66  0. 1.0000     0.      0.00 
  -4   4  19     68.30    5.14  0. 1.0000     0.      0.00 
  -3   4  19     35.02    2.81  0. 1.0000     0.      0.00 
  -2   4  19     12.06    3.26  0. 1.0000     0.      0.00 
  -1   4  19     16.99    2.15  0. 1.0000     0.      0.00 
   0   4  19     60.74    3.13  0. 1.0000     0.      0.00 
   1   4  19      0.00    3.71  0. 1.0000     0.      0.00 
   2   4  19    627.32    8.23  0. 1.0000     0.      0.00 
   3   4  19    190.10   26.72  0. 1.0000     0.      0.00 
   6   4  19     70.72   32.84  0. 1.0000     0.      0.00 
   7   4  19     68.36   10.17  0. 1.0000     0.      0.00 
   8   4  19     26.63    7.29  0. 1.0000     0.      0.00 
   9   4  19     10.29    7.43  0. 1.0000     0.      0.00 
 -11   5  19     40.87   15.85  0. 1.0000     0.      0.00 
 -10   5  19      0.00   29.47  0. 1.0000     0.      0.00 
  -9   5  19    141.49   27.44  0. 1.0000     0.      0.00 
  -8   5  19     91.77   14.72  0. 1.0000     0.      0.00 
  -7   5  19     16.96    5.04  0. 1.0000     0.      0.00 
  -6   5  19    299.67    5.93  0. 1.0000     0.      0.00 
  -5   5  19     16.78    3.24  0. 1.0000     0.      0.00 
  -4   5  19    367.98    5.08  0. 1.0000     0.      0.00 
  -3   5  19      0.00    2.96  0. 1.0000     0.      0.00 
  -2   5  19      0.00    3.25  0. 1.0000     0.      0.00 
  -1   5  19     55.66    3.67  0. 1.0000     0.      0.00 
   0   5  19      0.00   25.66  0. 1.0000     0.      0.00 
   3   5  19      0.00   19.94  0. 1.0000     0.      0.00 
   4   5  19      5.57    4.98  0. 1.0000     0.      0.00 
   5   5  19     15.04    5.41  0. 1.0000     0.      0.00 
   6   5  19     16.87    5.33  0. 1.0000     0.      0.00 
   7   5  19     42.12    6.36  0. 1.0000     0.      0.00 
   8   5  19     74.99    7.61  0. 1.0000     0.      0.00 
   9   5  19     38.45   12.43  0. 1.0000     0.      0.00 
 -11   6  19      9.58   12.01  0. 1.0000     0.      0.00 
 -10   6  19    301.81   11.02  0. 1.0000     0.      0.00 
  -9   6  19     39.19    6.39  0. 1.0000     0.      0.00 
  -8   6  19     71.02    5.31  0. 1.0000     0.      0.00 
  -7   6  19     59.05    3.71  0. 1.0000     0.      0.00 
  -6   6  19      3.75    3.35  0. 1.0000     0.      0.00 
  -5   6  19    206.88    4.73  0. 1.0000     0.      0.00 
  -4   6  19      0.00    7.12  0. 1.0000     0.      0.00 
  -3   6  19    574.08   17.15  0. 1.0000     0.      0.00 
  -2   6  19     54.61   20.26  0. 1.0000     0.      0.00 
  -1   6  19      0.00   19.92  0. 1.0000     0.      0.00 
   0   6  19     84.38   11.07  0. 1.0000     0.      0.00 
   1   6  19      0.00    5.44  0. 1.0000     0.      0.00 
   2   6  19     65.81    3.68  0. 1.0000     0.      0.00 
   3   6  19      0.54    3.63  0. 1.0000     0.      0.00 
   4   6  19     11.63    3.85  0. 1.0000     0.      0.00 
   5   6  19    193.90    7.01  0. 1.0000     0.      0.00 
   6   6  19      8.60    8.22  0. 1.0000     0.      0.00 
   7   6  19      0.00   14.39  0. 1.0000     0.      0.00 
   8   6  19      0.00   20.15  0. 1.0000     0.      0.00 
 -11   7  19     20.33    8.60  0. 1.0000     0.      0.00 
 -10   7  19     31.91    5.38  0. 1.0000     0.      0.00 
  -9   7  19    135.21    6.55  0. 1.0000     0.      0.00 
  -8   7  19      5.31    6.16  0. 1.0000     0.      0.00 
  -7   7  19     24.40    9.84  0. 1.0000     0.      0.00 
  -6   7  19     79.90   15.61  0. 1.0000     0.      0.00 
  -5   7  19      3.05   31.84  0. 1.0000     0.      0.00 
  -4   7  19     80.47   41.90  0. 1.0000     0.      0.00 
  -3   7  19    631.58   20.03  0. 1.0000     0.      0.00 
  -2   7  19      0.00    6.72  0. 1.0000     0.      0.00 
  -1   7  19    310.89    6.20  0. 1.0000     0.      0.00 
   0   7  19      6.64    3.14  0. 1.0000     0.      0.00 
   1   7  19      0.00    2.59  0. 1.0000     0.      0.00 
   2   7  19      0.00    5.31  0. 1.0000     0.      0.00 
   3   7  19     84.25    6.06  0. 1.0000     0.      0.00 
   4   7  19     16.32    8.88  0. 1.0000     0.      0.00 
   5   7  19      0.00   24.48  0. 1.0000     0.      0.00 
 -10   8  19      9.30   12.86  0. 1.0000     0.      0.00 
  -9   8  19    216.77   24.08  0. 1.0000     0.      0.00 
  -8   8  19      0.53   27.38  0. 1.0000     0.      0.00 
  -7   8  19    467.52   36.59  0. 1.0000     0.      0.00 
  -6   8  19    117.19   15.20  0. 1.0000     0.      0.00 
  -5   8  19     69.08   13.87  0. 1.0000     0.      0.00 
  -4   8  19     85.91    5.74  0. 1.0000     0.      0.00 
  -3   8  19      9.42    3.68  0. 1.0000     0.      0.00 
  -2   8  19      0.00    4.02  0. 1.0000     0.      0.00 
  -1   8  19     20.56    3.78  0. 1.0000     0.      0.00 
   0   8  19    159.45    5.01  0. 1.0000     0.      0.00 
   1   8  19     70.32   14.03  0. 1.0000     0.      0.00 
   5   8  19     32.58   33.77  0. 1.0000     0.      0.00 
   6   8  19      2.83   14.01  0. 1.0000     0.      0.00 
 -10   9  19      5.82   12.76  0. 1.0000     0.      0.00 
  -9   9  19     14.61   12.90  0. 1.0000     0.      0.00 
  -8   9  19      8.78    9.41  0. 1.0000     0.      0.00 
  -7   9  19    118.02    8.29  0. 1.0000     0.      0.00 
  -6   9  19      0.00    5.14  0. 1.0000     0.      0.00 
  -5   9  19     90.42    4.67  0. 1.0000     0.      0.00 
  -4   9  19      6.57    5.05  0. 1.0000     0.      0.00 
  -3   9  19     15.34    7.31  0. 1.0000     0.      0.00 
  -2   9  19      0.00   14.74  0. 1.0000     0.      0.00 
  -1   9  19     23.74   43.89  0. 1.0000     0.      0.00 
   2   9  19     75.63   23.22  0. 1.0000     0.      0.00 
   3   9  19      3.83   12.57  0. 1.0000     0.      0.00 
   4   9  19      7.88    8.87  0. 1.0000     0.      0.00 
   5   9  19     22.78    8.50  0. 1.0000     0.      0.00 
  -9  10  19     10.33    7.17  0. 1.0000     0.      0.00 
  -8  10  19      6.37    4.73  0. 1.0000     0.      0.00 
  -7  10  19      0.00    6.48  0. 1.0000     0.      0.00 
  -6  10  19    164.86   11.69  0. 1.0000     0.      0.00 
  -5  10  19      0.00   16.48  0. 1.0000     0.      0.00 
  -4  10  19    327.90   26.61  0. 1.0000     0.      0.00 
  -1  10  19     45.57   15.48  0. 1.0000     0.      0.00 
   0  10  19      7.33   12.83  0. 1.0000     0.      0.00 
   1  10  19     40.59    8.06  0. 1.0000     0.      0.00 
   2  10  19     25.98    6.14  0. 1.0000     0.      0.00 
   3  10  19     12.70    6.51  0. 1.0000     0.      0.00 
   4  10  19      2.64   10.50  0. 1.0000     0.      0.00 
  -7  11  19     12.92   29.81  0. 1.0000     0.      0.00 
  -6  11  19      0.00   45.57  0. 1.0000     0.      0.00 
  -5  11  19     41.54   42.45  0. 1.0000     0.      0.00 
  -4  11  19    132.73   16.93  0. 1.0000     0.      0.00 
  -3  11  19      2.21   12.94  0. 1.0000     0.      0.00 
  -2  11  19     80.60   10.15  0. 1.0000     0.      0.00 
  -1  11  19      0.00    6.07  0. 1.0000     0.      0.00 
   0  11  19      6.65    4.78  0. 1.0000     0.      0.00 
   1  11  19      6.28    6.83  0. 1.0000     0.      0.00 
   2  11  19      0.00    9.49  0. 1.0000     0.      0.00 
  -5  12  19     11.15   10.61  0. 1.0000     0.      0.00 
  -4  12  19      3.25    6.80  0. 1.0000     0.      0.00 
  -3  12  19     24.77    5.46  0. 1.0000     0.      0.00 
  -2  12  19     17.39    6.53  0. 1.0000     0.      0.00 
  -1  12  19     89.06   10.90  0. 1.0000     0.      0.00 
  -1 -12  20     85.34   17.18  0. 1.0000     0.      0.00 
   0 -12  20     31.80    9.06  0. 1.0000     0.      0.00 
   1 -12  20     16.40    7.33  0. 1.0000     0.      0.00 
   2 -12  20    191.90    7.05  0. 1.0000     0.      0.00 
   3 -12  20      0.00    5.18  0. 1.0000     0.      0.00 
   4 -12  20     24.59    6.63  0. 1.0000     0.      0.00 
   5 -12  20    161.98    8.10  0. 1.0000     0.      0.00 
   6 -12  20     23.05    9.81  0. 1.0000     0.      0.00 
   7 -12  20     21.76   14.22  0. 1.0000     0.      0.00 
  -3 -11  20     21.57   10.94  0. 1.0000     0.      0.00 
  -2 -11  20     99.23    9.06  0. 1.0000     0.      0.00 
  -1 -11  20     31.02    6.51  0. 1.0000     0.      0.00 
   0 -11  20    406.49    8.48  0. 1.0000     0.      0.00 
   1 -11  20     13.60    5.42  0. 1.0000     0.      0.00 
   2 -11  20     13.28    6.24  0. 1.0000     0.      0.00 
   3 -11  20      0.00    8.56  0. 1.0000     0.      0.00 
   4 -11  20     15.39   11.77  0. 1.0000     0.      0.00 
   5 -11  20      0.00   20.89  0. 1.0000     0.      0.00 
   6 -11  20    299.55   27.69  0. 1.0000     0.      0.00 
   7 -11  20      3.89   12.30  0. 1.0000     0.      0.00 
   8 -11  20     18.57    9.31  0. 1.0000     0.      0.00 
  -4 -10  20    153.19    9.29  0. 1.0000     0.      0.00 
  -3 -10  20     41.93    6.24  0. 1.0000     0.      0.00 
  -2 -10  20      0.00    5.88  0. 1.0000     0.      0.00 
  -1 -10  20    230.11    8.35  0. 1.0000     0.      0.00 
   0 -10  20    269.81    8.67  0. 1.0000     0.      0.00 
   1 -10  20      0.00   11.34  0. 1.0000     0.      0.00 
   2 -10  20      0.00   25.24  0. 1.0000     0.      0.00 
   4 -10  20      3.58    8.76  0. 1.0000     0.      0.00 
   5 -10  20    552.16   11.12  0. 1.0000     0.      0.00 
   6 -10  20     94.13    7.15  0. 1.0000     0.      0.00 
   7 -10  20      3.13    5.43  0. 1.0000     0.      0.00 
   8 -10  20     29.34    5.08  0. 1.0000     0.      0.00 
   9 -10  20      7.57    7.49  0. 1.0000     0.      0.00 
  -6  -9  20      0.00    9.09  0. 1.0000     0.      0.00 
  -5  -9  20    369.30   11.22  0. 1.0000     0.      0.00 
  -4  -9  20    270.51    9.88  0. 1.0000     0.      0.00 
  -3  -9  20     11.24    8.69  0. 1.0000     0.      0.00 
  -2  -9  20      0.00    9.57  0. 1.0000     0.      0.00 
  -1  -9  20      3.06   19.79  0. 1.0000     0.      0.00 
   0  -9  20     11.27   16.56  0. 1.0000     0.      0.00 
   1  -9  20    326.49   12.32  0. 1.0000     0.      0.00 
   2  -9  20     36.96    6.91  0. 1.0000     0.      0.00 
   3  -9  20    226.44    7.78  0. 1.0000     0.      0.00 
   4  -9  20      5.29    5.45  0. 1.0000     0.      0.00 
   5  -9  20     39.41    5.28  0. 1.0000     0.      0.00 
   6  -9  20      0.00    5.48  0. 1.0000     0.      0.00 
   7  -9  20      0.00    6.11  0. 1.0000     0.      0.00 
   8  -9  20     34.56    8.49  0. 1.0000     0.      0.00 
   9  -9  20     84.48   12.82  0. 1.0000     0.      0.00 
  10  -9  20     25.03   26.37  0. 1.0000     0.      0.00 
  -7  -8  20     45.97    9.94  0. 1.0000     0.      0.00 
  -6  -8  20    199.14   10.60  0. 1.0000     0.      0.00 
  -5  -8  20    162.96   13.18  0. 1.0000     0.      0.00 
  -4  -8  20    125.24   29.70  0. 1.0000     0.      0.00 
  -3  -8  20    115.57   40.12  0. 1.0000     0.      0.00 
  -2  -8  20     10.65   11.44  0. 1.0000     0.      0.00 
  -1  -8  20     93.19    5.24  0. 1.0000     0.      0.00 
   0  -8  20    256.11    5.72  0. 1.0000     0.      0.00 
   1  -8  20    344.11    6.78  0. 1.0000     0.      0.00 
   2  -8  20     12.95    3.08  0. 1.0000     0.      0.00 
   3  -8  20    388.97    6.55  0. 1.0000     0.      0.00 
   4  -8  20     82.31    4.85  0. 1.0000     0.      0.00 
   5  -8  20     16.32    6.11  0. 1.0000     0.      0.00 
   6  -8  20    163.46   27.81  0. 1.0000     0.      0.00 
   7  -8  20     20.70   24.87  0. 1.0000     0.      0.00 
   8  -8  20    125.86   29.08  0. 1.0000     0.      0.00 
   9  -8  20    170.17   14.44  0. 1.0000     0.      0.00 
  10  -8  20     12.82   11.47  0. 1.0000     0.      0.00 
  -8  -7  20      0.00   20.43  0. 1.0000     0.      0.00 
  -7  -7  20     88.53   23.97  0. 1.0000     0.      0.00 
  -6  -7  20     19.09   21.71  0. 1.0000     0.      0.00 
  -5  -7  20      0.00   10.32  0. 1.0000     0.      0.00 
  -4  -7  20     16.92    6.82  0. 1.0000     0.      0.00 
  -3  -7  20    233.05    7.17  0. 1.0000     0.      0.00 
  -2  -7  20    277.08    5.51  0. 1.0000     0.      0.00 
  -1  -7  20    595.15    7.74  0. 1.0000     0.      0.00 
   0  -7  20    132.32    3.81  0. 1.0000     0.      0.00 
   1  -7  20    129.08    4.66  0. 1.0000     0.      0.00 
   2  -7  20      9.09    3.94  0. 1.0000     0.      0.00 
   3  -7  20    349.52    8.82  0. 1.0000     0.      0.00 
   4  -7  20     86.81   23.24  0. 1.0000     0.      0.00 
   5  -7  20     15.66   21.55  0. 1.0000     0.      0.00 
   6  -7  20    217.98   10.15  0. 1.0000     0.      0.00 
   7  -7  20     12.81    9.93  0. 1.0000     0.      0.00 
   8  -7  20    194.66    7.05  0. 1.0000     0.      0.00 
   9  -7  20     43.66    5.68  0. 1.0000     0.      0.00 
  10  -7  20     24.80    4.70  0. 1.0000     0.      0.00 
  11  -7  20     19.46    7.94  0. 1.0000     0.      0.00 
  -8  -6  20     19.70   10.18  0. 1.0000     0.      0.00 
  -7  -6  20     87.42    8.79  0. 1.0000     0.      0.00 
  -6  -6  20     31.56    6.58  0. 1.0000     0.      0.00 
  -5  -6  20     19.58    5.43  0. 1.0000     0.      0.00 
  -4  -6  20    386.70    8.17  0. 1.0000     0.      0.00 
  -3  -6  20    119.23    4.43  0. 1.0000     0.      0.00 
  -2  -6  20    599.21    8.23  0. 1.0000     0.      0.00 
  -1  -6  20    785.01    9.83  0. 1.0000     0.      0.00 
   0  -6  20     13.26    4.34  0. 1.0000     0.      0.00 
   1  -6  20    231.12   24.41  0. 1.0000     0.      0.00 
   2  -6  20      0.00   24.01  0. 1.0000     0.      0.00 
   3  -6  20      0.00    5.64  0. 1.0000     0.      0.00 
   4  -6  20   1134.42   14.02  0. 1.0000     0.      0.00 
   5  -6  20     30.54    4.26  0. 1.0000     0.      0.00 
   6  -6  20     24.66    3.55  0. 1.0000     0.      0.00 
   7  -6  20      5.67    3.12  0. 1.0000     0.      0.00 
   8  -6  20     11.56    5.48  0. 1.0000     0.      0.00 
   9  -6  20      7.98    6.23  0. 1.0000     0.      0.00 
  10  -6  20    102.72   10.05  0. 1.0000     0.      0.00 
  11  -6  20      0.16   16.14  0. 1.0000     0.      0.00 
  -9  -5  20      9.85    8.23  0. 1.0000     0.      0.00 
  -8  -5  20     69.23    7.76  0. 1.0000     0.      0.00 
  -7  -5  20     26.92    6.04  0. 1.0000     0.      0.00 
  -6  -5  20    689.50   12.64  0. 1.0000     0.      0.00 
  -5  -5  20    156.18    5.43  0. 1.0000     0.      0.00 
  -4  -5  20     46.04    4.29  0. 1.0000     0.      0.00 
  -3  -5  20    393.18    6.97  0. 1.0000     0.      0.00 
  -2  -5  20     26.38   12.52  0. 1.0000     0.      0.00 
  -1  -5  20    203.79   13.31  0. 1.0000     0.      0.00 
   0  -5  20    452.78    7.40  0. 1.0000     0.      0.00 
   1  -5  20     56.25    3.53  0. 1.0000     0.      0.00 
   2  -5  20    429.05    6.39  0. 1.0000     0.      0.00 
   3  -5  20    371.94    5.32  0. 1.0000     0.      0.00 
   4  -5  20     16.92    3.31  0. 1.0000     0.      0.00 
   5  -5  20     71.67    3.43  0. 1.0000     0.      0.00 
   6  -5  20    130.38    5.04  0. 1.0000     0.      0.00 
   7  -5  20      8.19    5.72  0. 1.0000     0.      0.00 
   8  -5  20     30.17   19.11  0. 1.0000     0.      0.00 
   9  -5  20    120.94   28.69  0. 1.0000     0.      0.00 
  10  -5  20     51.45   24.08  0. 1.0000     0.      0.00 
  11  -5  20     26.69   16.02  0. 1.0000     0.      0.00 
 -10  -4  20    100.36    8.19  0. 1.0000     0.      0.00 
  -9  -4  20      7.50    6.29  0. 1.0000     0.      0.00 
  -8  -4  20      8.77    6.71  0. 1.0000     0.      0.00 
  -7  -4  20    506.01   10.56  0. 1.0000     0.      0.00 
  -6  -4  20    437.68    9.17  0. 1.0000     0.      0.00 
  -5  -4  20     88.57    9.40  0. 1.0000     0.      0.00 
  -4  -4  20     12.50   11.36  0. 1.0000     0.      0.00 
  -3  -4  20     53.26    4.59  0. 1.0000     0.      0.00 
  -2  -4  20     11.07    4.16  0. 1.0000     0.      0.00 
  -1  -4  20    834.92    9.26  0. 1.0000     0.      0.00 
   0  -4  20    420.92    5.44  0. 1.0000     0.      0.00 
   1  -4  20    189.87    3.62  0. 1.0000     0.      0.00 
   2  -4  20    579.21    7.44  0. 1.0000     0.      0.00 
   3  -4  20      6.83    2.86  0. 1.0000     0.      0.00 
   4  -4  20    727.42    9.72  0. 1.0000     0.      0.00 
   5  -4  20     66.09    6.01  0. 1.0000     0.      0.00 
   6  -4  20    386.94   40.51  0. 1.0000     0.      0.00 
   7  -4  20    440.31   32.15  0. 1.0000     0.      0.00 
   8  -4  20      6.25   11.55  0. 1.0000     0.      0.00 
   9  -4  20     19.80   10.11  0. 1.0000     0.      0.00 
  10  -4  20     27.64    7.59  0. 1.0000     0.      0.00 
  11  -4  20     23.93    6.61  0. 1.0000     0.      0.00 
 -10  -3  20    254.46    8.77  0. 1.0000     0.      0.00 
  -9  -3  20     50.60    9.20  0. 1.0000     0.      0.00 
  -8  -3  20      0.00   13.57  0. 1.0000     0.      0.00 
  -7  -3  20     67.83   14.95  0. 1.0000     0.      0.00 
  -6  -3  20     17.91    5.76  0. 1.0000     0.      0.00 
  -5  -3  20    140.74    4.78  0. 1.0000     0.      0.00 
  -4  -3  20     75.61    3.41  0. 1.0000     0.      0.00 
  -3  -3  20    657.81    8.00  0. 1.0000     0.      0.00 
  -2  -3  20     24.39    2.00  0. 1.0000     0.      0.00 
  -1  -3  20    462.53    5.25  0. 1.0000     0.      0.00 
   0  -3  20    404.28    5.59  0. 1.0000     0.      0.00 
   1  -3  20     57.70    2.92  0. 1.0000     0.      0.00 
   2  -3  20    661.74   11.62  0. 1.0000     0.      0.00 
   3  -3  20     59.51    8.90  0. 1.0000     0.      0.00 
   4  -3  20    542.75   29.02  0. 1.0000     0.      0.00 
   5  -3  20    370.20    9.53  0. 1.0000     0.      0.00 
   6  -3  20      0.00    4.32  0. 1.0000     0.      0.00 
   7  -3  20    231.89    6.30  0. 1.0000     0.      0.00 
   8  -3  20    100.05    5.23  0. 1.0000     0.      0.00 
   9  -3  20      4.79    3.78  0. 1.0000     0.      0.00 
  10  -3  20     82.80    5.76  0. 1.0000     0.      0.00 
  11  -3  20      6.07    9.04  0. 1.0000     0.      0.00 
 -10  -2  20     33.22   13.00  0. 1.0000     0.      0.00 
  -9  -2  20     87.50   10.05  0. 1.0000     0.      0.00 
  -8  -2  20     12.72    7.03  0. 1.0000     0.      0.00 
  -7  -2  20     21.28    4.95  0. 1.0000     0.      0.00 
  -6  -2  20     67.68    4.24  0. 1.0000     0.      0.00 
  -5  -2  20    459.10    6.26  0. 1.0000     0.      0.00 
  -4  -2  20    235.84    3.95  0. 1.0000     0.      0.00 
  -3  -2  20   1090.84   13.36  0. 1.0000     0.      0.00 
  -2  -2  20    427.65    6.90  0. 1.0000     0.      0.00 
  -1  -2  20    237.26    5.26  0. 1.0000     0.      0.00 
   0  -2  20    631.88   47.41  0. 1.0000     0.      0.00 
   1  -2  20    119.37   13.83  0. 1.0000     0.      0.00 
   2  -2  20     78.45   10.20  0. 1.0000     0.      0.00 
   3  -2  20    802.40    9.89  0. 1.0000     0.      0.00 
   4  -2  20     13.55    4.32  0. 1.0000     0.      0.00 
   5  -2  20     42.96    3.16  0. 1.0000     0.      0.00 
   6  -2  20    120.98    3.84  0. 1.0000     0.      0.00 
   7  -2  20    114.52    4.33  0. 1.0000     0.      0.00 
   8  -2  20     34.44    6.05  0. 1.0000     0.      0.00 
   9  -2  20    183.54   10.15  0. 1.0000     0.      0.00 
  10  -2  20    131.70   14.60  0. 1.0000     0.      0.00 
  11  -2  20     49.00   62.44  0. 1.0000     0.      0.00 
 -11  -1  20      1.20    9.82  0. 1.0000     0.      0.00 
 -10  -1  20      9.17    6.67  0. 1.0000     0.      0.00 
  -9  -1  20    116.39    6.51  0. 1.0000     0.      0.00 
  -8  -1  20     59.21    4.95  0. 1.0000     0.      0.00 
  -7  -1  20    553.67    7.47  0. 1.0000     0.      0.00 
  -6  -1  20     64.85    3.72  0. 1.0000     0.      0.00 
  -5  -1  20     38.18    3.80  0. 1.0000     0.      0.00 
  -4  -1  20    319.69    7.06  0. 1.0000     0.      0.00 
  -3  -1  20    598.97   30.67  0. 1.0000     0.      0.00 
  -2  -1  20     74.64   16.97  0. 1.0000     0.      0.00 
  -1  -1  20     15.16    4.45  0. 1.0000     0.      0.00 
   0  -1  20    605.72    7.40  0. 1.0000     0.      0.00 
   1  -1  20    224.42    3.74  0. 1.0000     0.      0.00 
   2  -1  20    970.50   11.01  0. 1.0000     0.      0.00 
   3  -1  20     42.90    2.60  0. 1.0000     0.      0.00 
   4  -1  20     54.26    3.35  0. 1.0000     0.      0.00 
   5  -1  20    109.72    3.67  0. 1.0000     0.      0.00 
   6  -1  20     41.28    5.09  0. 1.0000     0.      0.00 
   7  -1  20    298.31   10.81  0. 1.0000     0.      0.00 
   8  -1  20    235.95   45.25  0. 1.0000     0.      0.00 
   9  -1  20    183.97   30.04  0. 1.0000     0.      0.00 
  10  -1  20     46.33   18.27  0. 1.0000     0.      0.00 
  11  -1  20      0.00   14.04  0. 1.0000     0.      0.00 
 -11   0  20     13.18    6.44  0. 1.0000     0.      0.00 
 -10   0  20     75.01    5.78  0. 1.0000     0.      0.00 
  -9   0  20      9.82    5.89  0. 1.0000     0.      0.00 
  -8   0  20    519.10   11.99  0. 1.0000     0.      0.00 
  -7   0  20    731.61   13.00  0. 1.0000     0.      0.00 
  -6   0  20     31.02   11.79  0. 1.0000     0.      0.00 
  -5   0  20    375.20   23.32  0. 1.0000     0.      0.00 
  -4   0  20     11.64    4.40  0. 1.0000     0.      0.00 
  -3   0  20     11.82    3.52  0. 1.0000     0.      0.00 
  -2   0  20   1448.97   15.56  0. 1.0000     0.      0.00 
  -1   0  20    122.40    2.67  0. 1.0000     0.      0.00 
   0   0  20    672.37    8.47  0. 1.0000     0.      0.00 
   1   0  20     11.67    1.92  0. 1.0000     0.      0.00 
   2   0  20      0.00    5.81  0. 1.0000     0.      0.00 
   3   0  20    445.31    6.12  0. 1.0000     0.      0.00 
   4   0  20     88.00    6.42  0. 1.0000     0.      0.00 
   6   0  20    278.77   33.48  0. 1.0000     0.      0.00 
   7   0  20    125.81   11.31  0. 1.0000     0.      0.00 
   8   0  20     59.11    9.66  0. 1.0000     0.      0.00 
   9   0  20      6.21    6.98  0. 1.0000     0.      0.00 
  10   0  20     10.26    5.91  0. 1.0000     0.      0.00 
  11   0  20     39.27    5.78  0. 1.0000     0.      0.00 
 -11   1  20     47.27    9.69  0. 1.0000     0.      0.00 
 -10   1  20     93.52   12.39  0. 1.0000     0.      0.00 
  -9   1  20    257.95   28.80  0. 1.0000     0.      0.00 
  -7   1  20     81.67    6.92  0. 1.0000     0.      0.00 
  -6   1  20    173.03    4.61  0. 1.0000     0.      0.00 
  -5   1  20     43.51    3.20  0. 1.0000     0.      0.00 
  -4   1  20    231.81    4.16  0. 1.0000     0.      0.00 
  -3   1  20    200.88    3.52  0. 1.0000     0.      0.00 
  -2   1  20    255.48    6.25  0. 1.0000     0.      0.00 
  -1   1  20    102.42    3.29  0. 1.0000     0.      0.00 
   0   1  20    242.08    5.40  0. 1.0000     0.      0.00 
   1   1  20     52.28   16.18  0. 1.0000     0.      0.00 
   3   1  20    168.59  100.66  0. 1.0000     0.      0.00 
   4   1  20    623.54   36.29  0. 1.0000     0.      0.00 
   5   1  20     78.82    4.82  0. 1.0000     0.      0.00 
   6   1  20     70.90    3.76  0. 1.0000     0.      0.00 
   7   1  20     31.25    4.19  0. 1.0000     0.      0.00 
   8   1  20     22.74    5.69  0. 1.0000     0.      0.00 
   9   1  20     69.41    6.18  0. 1.0000     0.      0.00 
  10   1  20      5.43    9.13  0. 1.0000     0.      0.00 
 -11   2  20      9.76   17.27  0. 1.0000     0.      0.00 
 -10   2  20     63.10   10.48  0. 1.0000     0.      0.00 
  -9   2  20     24.67    7.68  0. 1.0000     0.      0.00 
  -8   2  20     23.78    6.05  0. 1.0000     0.      0.00 
  -7   2  20    195.15    5.01  0. 1.0000     0.      0.00 
  -6   2  20    262.06    4.69  0. 1.0000     0.      0.00 
  -5   2  20    212.74    3.98  0. 1.0000     0.      0.00 
  -4   2  20    806.58   10.15  0. 1.0000     0.      0.00 
  -3   2  20     35.39    4.94  0. 1.0000     0.      0.00 
  -2   2  20   1102.65   30.98  0. 1.0000     0.      0.00 
   1   2  20    180.02   16.39  0. 1.0000     0.      0.00 
   2   2  20     14.01    2.97  0. 1.0000     0.      0.00 
   3   2  20    182.50    3.67  0. 1.0000     0.      0.00 
   4   2  20     48.90    4.72  0. 1.0000     0.      0.00 
   5   2  20     43.09    2.44  0. 1.0000     0.      0.00 
   6   2  20     27.05    3.77  0. 1.0000     0.      0.00 
   7   2  20     21.39    6.80  0. 1.0000     0.      0.00 
   8   2  20     23.33   10.62  0. 1.0000     0.      0.00 
   9   2  20     36.95   17.59  0. 1.0000     0.      0.00 
 -11   3  20     42.07    7.43  0. 1.0000     0.      0.00 
 -10   3  20     64.43    6.73  0. 1.0000     0.      0.00 
  -9   3  20     68.76    5.08  0. 1.0000     0.      0.00 
  -8   3  20     34.56    6.00  0. 1.0000     0.      0.00 
  -7   3  20    430.54    7.46  0. 1.0000     0.      0.00 
  -6   3  20    110.34    4.45  0. 1.0000     0.      0.00 
  -5   3  20     78.09    8.23  0. 1.0000     0.      0.00 
  -4   3  20    897.15   64.12  0. 1.0000     0.      0.00 
  -3   3  20      0.00   15.24  0. 1.0000     0.      0.00 
  -2   3  20    764.83   18.52  0. 1.0000     0.      0.00 
  -1   3  20    284.73    4.72  0. 1.0000     0.      0.00 
   0   3  20     43.98    3.99  0. 1.0000     0.      0.00 
   1   3  20    815.09   10.14  0. 1.0000     0.      0.00 
   2   3  20     24.13    2.59  0. 1.0000     0.      0.00 
   3   3  20      0.00    2.89  0. 1.0000     0.      0.00 
   4   3  20     25.86    3.50  0. 1.0000     0.      0.00 
   5   3  20     84.55    6.13  0. 1.0000     0.      0.00 
   6   3  20    122.61   14.56  0. 1.0000     0.      0.00 
   9   3  20      0.00   39.56  0. 1.0000     0.      0.00 
  10   3  20      6.46    9.27  0. 1.0000     0.      0.00 
 -11   4  20     88.09    6.50  0. 1.0000     0.      0.00 
 -10   4  20     22.80    7.29  0. 1.0000     0.      0.00 
  -9   4  20    367.05   10.99  0. 1.0000     0.      0.00 
  -8   4  20    108.23   24.21  0. 1.0000     0.      0.00 
  -7   4  20      1.05   19.35  0. 1.0000     0.      0.00 
  -6   4  20    620.57   35.81  0. 1.0000     0.      0.00 
  -5   4  20      0.00    6.68  0. 1.0000     0.      0.00 
  -4   4  20      0.00    4.32  0. 1.0000     0.      0.00 
  -3   4  20    706.56    8.92  0. 1.0000     0.      0.00 
  -2   4  20     87.86    3.14  0. 1.0000     0.      0.00 
  -1   4  20    288.15    6.18  0. 1.0000     0.      0.00 
   0   4  20    141.98    3.73  0. 1.0000     0.      0.00 
   1   4  20    157.17    3.42  0. 1.0000     0.      0.00 
   2   4  20      0.00    4.06  0. 1.0000     0.      0.00 
   3   4  20    188.35   20.92  0. 1.0000     0.      0.00 
   7   4  20    188.62   12.08  0. 1.0000     0.      0.00 
   8   4  20      1.54    7.54  0. 1.0000     0.      0.00 
   9   4  20     28.69    7.83  0. 1.0000     0.      0.00 
 -11   5  20      5.09   15.80  0. 1.0000     0.      0.00 
 -10   5  20    153.21   23.03  0. 1.0000     0.      0.00 
  -9   5  20     53.51   20.85  0. 1.0000     0.      0.00 
  -8   5  20     13.78    9.39  0. 1.0000     0.      0.00 
  -7   5  20     10.67    8.14  0. 1.0000     0.      0.00 
  -6   5  20    114.45    4.37  0. 1.0000     0.      0.00 
  -5   5  20     36.22    4.91  0. 1.0000     0.      0.00 
  -4   5  20    460.91    6.64  0. 1.0000     0.      0.00 
  -3   5  20    132.26    3.34  0. 1.0000     0.      0.00 
  -2   5  20      0.00    3.60  0. 1.0000     0.      0.00 
  -1   5  20     35.99    7.68  0. 1.0000     0.      0.00 
   3   5  20    776.31   73.09  0. 1.0000     0.      0.00 
   4   5  20    149.90    7.47  0. 1.0000     0.      0.00 
   5   5  20      0.00    5.55  0. 1.0000     0.      0.00 
   6   5  20      0.00    5.84  0. 1.0000     0.      0.00 
   7   5  20     22.34    6.06  0. 1.0000     0.      0.00 
   8   5  20     10.78    7.46  0. 1.0000     0.      0.00 
 -11   6  20      4.76   13.55  0. 1.0000     0.      0.00 
 -10   6  20     12.36    8.52  0. 1.0000     0.      0.00 
  -9   6  20      0.00    7.01  0. 1.0000     0.      0.00 
  -8   6  20    193.48    6.26  0. 1.0000     0.      0.00 
  -7   6  20     77.94    5.09  0. 1.0000     0.      0.00 
  -6   6  20    127.45    4.20  0. 1.0000     0.      0.00 
  -5   6  20     70.27    6.59  0. 1.0000     0.      0.00 
  -4   6  20     72.60    6.00  0. 1.0000     0.      0.00 
  -3   6  20    505.02   16.66  0. 1.0000     0.      0.00 
  -2   6  20      0.00   25.22  0. 1.0000     0.      0.00 
  -1   6  20    290.30   57.47  0. 1.0000     0.      0.00 
   0   6  20     70.52   13.23  0. 1.0000     0.      0.00 
   1   6  20    169.44    6.80  0. 1.0000     0.      0.00 
   2   6  20    234.97    5.71  0. 1.0000     0.      0.00 
   3   6  20      9.16    4.06  0. 1.0000     0.      0.00 
   4   6  20      6.22    3.98  0. 1.0000     0.      0.00 
   5   6  20      0.00    5.36  0. 1.0000     0.      0.00 
   6   6  20      0.00    8.70  0. 1.0000     0.      0.00 
   7   6  20     48.45   16.01  0. 1.0000     0.      0.00 
   8   6  20      7.08   21.30  0. 1.0000     0.      0.00 
 -11   7  20     10.98   11.54  0. 1.0000     0.      0.00 
 -10   7  20      5.62    5.54  0. 1.0000     0.      0.00 
  -9   7  20     52.53    6.35  0. 1.0000     0.      0.00 
  -8   7  20    243.99    7.80  0. 1.0000     0.      0.00 
  -7   7  20      8.36   10.61  0. 1.0000     0.      0.00 
  -6   7  20    121.41   26.59  0. 1.0000     0.      0.00 
  -5   7  20      0.00   51.33  0. 1.0000     0.      0.00 
  -4   7  20     20.25   30.15  0. 1.0000     0.      0.00 
  -3   7  20    532.34   18.86  0. 1.0000     0.      0.00 
  -2   7  20    131.28    8.97  0. 1.0000     0.      0.00 
  -1   7  20      6.89    3.83  0. 1.0000     0.      0.00 
   0   7  20    307.41    5.87  0. 1.0000     0.      0.00 
   1   7  20      0.02    2.58  0. 1.0000     0.      0.00 
   2   7  20      4.12    4.20  0. 1.0000     0.      0.00 
   3   7  20     65.11    6.87  0. 1.0000     0.      0.00 
   4   7  20    182.82   11.47  0. 1.0000     0.      0.00 
 -10   8  20     94.13   13.91  0. 1.0000     0.      0.00 
  -9   8  20     33.75   19.97  0. 1.0000     0.      0.00 
  -8   8  20     48.30   39.94  0. 1.0000     0.      0.00 
  -7   8  20     44.56   30.36  0. 1.0000     0.      0.00 
  -6   8  20     19.93   13.60  0. 1.0000     0.      0.00 
  -5   8  20     11.30    9.50  0. 1.0000     0.      0.00 
  -4   8  20      0.00   11.10  0. 1.0000     0.      0.00 
  -3   8  20     96.72    5.66  0. 1.0000     0.      0.00 
  -2   8  20     79.09    3.98  0. 1.0000     0.      0.00 
  -1   8  20    105.23    5.25  0. 1.0000     0.      0.00 
   0   8  20     30.37    6.23  0. 1.0000     0.      0.00 
   1   8  20      0.00   17.94  0. 1.0000     0.      0.00 
   5   8  20     76.17   46.63  0. 1.0000     0.      0.00 
   6   8  20    109.26   14.98  0. 1.0000     0.      0.00 
  -9   9  20     18.43   15.31  0. 1.0000     0.      0.00 
  -8   9  20     91.39   10.01  0. 1.0000     0.      0.00 
  -7   9  20     15.41    7.91  0. 1.0000     0.      0.00 
  -6   9  20      9.48    4.98  0. 1.0000     0.      0.00 
  -5   9  20    349.83    6.55  0. 1.0000     0.      0.00 
  -4   9  20     32.72    5.34  0. 1.0000     0.      0.00 
  -3   9  20      0.00    8.75  0. 1.0000     0.      0.00 
  -2   9  20      0.00   14.71  0. 1.0000     0.      0.00 
  -1   9  20      0.00   46.35  0. 1.0000     0.      0.00 
   2   9  20     64.49   25.68  0. 1.0000     0.      0.00 
   3   9  20     19.77   14.18  0. 1.0000     0.      0.00 
   4   9  20     11.77    9.44  0. 1.0000     0.      0.00 
   5   9  20      7.45   13.90  0. 1.0000     0.      0.00 
  -8  10  20     13.35    4.98  0. 1.0000     0.      0.00 
  -7  10  20     30.08    7.12  0. 1.0000     0.      0.00 
  -6  10  20     15.81   10.39  0. 1.0000     0.      0.00 
  -5  10  20     26.48   15.82  0. 1.0000     0.      0.00 
  -4  10  20     12.97   27.38  0. 1.0000     0.      0.00 
  -3  10  20      0.00   56.13  0. 1.0000     0.      0.00 
  -2  10  20      0.00   54.32  0. 1.0000     0.      0.00 
  -1  10  20      1.43   19.17  0. 1.0000     0.      0.00 
   0  10  20     72.32   13.75  0. 1.0000     0.      0.00 
   1  10  20    246.02    9.97  0. 1.0000     0.      0.00 
   2  10  20      0.00    6.64  0. 1.0000     0.      0.00 
   3  10  20     16.71    7.47  0. 1.0000     0.      0.00 
  -7  11  20     57.64   20.95  0. 1.0000     0.      0.00 
  -6  11  20     35.89   50.05  0. 1.0000     0.      0.00 
  -5  11  20    258.79   67.31  0. 1.0000     0.      0.00 
  -4  11  20      1.86   17.46  0. 1.0000     0.      0.00 
  -3  11  20    128.89   15.59  0. 1.0000     0.      0.00 
  -2  11  20      9.08   10.85  0. 1.0000     0.      0.00 
  -1  11  20      6.89    6.57  0. 1.0000     0.      0.00 
   0  11  20      4.68    5.23  0. 1.0000     0.      0.00 
   1  11  20     11.09    7.28  0. 1.0000     0.      0.00 
   0 -12  21    165.69   10.27  0. 1.0000     0.      0.00 
   1 -12  21     60.13    8.28  0. 1.0000     0.      0.00 
   2 -12  21     27.34    6.59  0. 1.0000     0.      0.00 
   3 -12  21    167.56    6.45  0. 1.0000     0.      0.00 
   4 -12  21     28.98    7.18  0. 1.0000     0.      0.00 
   5 -12  21     19.25    7.86  0. 1.0000     0.      0.00 
   6 -12  21     17.31    9.82  0. 1.0000     0.      0.00 
  -3 -11  21    101.71   35.76  0. 1.0000     0.      0.00 
  -2 -11  21      5.67    9.69  0. 1.0000     0.      0.00 
  -1 -11  21    313.34    8.93  0. 1.0000     0.      0.00 
   0 -11  21     14.61    4.94  0. 1.0000     0.      0.00 
   1 -11  21     17.08    5.68  0. 1.0000     0.      0.00 
   2 -11  21     24.50    6.50  0. 1.0000     0.      0.00 
   3 -11  21    208.33    8.60  0. 1.0000     0.      0.00 
   4 -11  21      0.00   11.50  0. 1.0000     0.      0.00 
   5 -11  21     48.79   20.05  0. 1.0000     0.      0.00 
   6 -11  21     12.12   33.59  0. 1.0000     0.      0.00 
   7 -11  21    291.34   14.90  0. 1.0000     0.      0.00 
   8 -11  21     86.57    5.51  0. 1.0000     0.      0.00 
  -4 -10  21      2.35    9.91  0. 1.0000     0.      0.00 
  -3 -10  21      4.12    6.34  0. 1.0000     0.      0.00 
  -2 -10  21     82.72    6.63  0. 1.0000     0.      0.00 
  -1 -10  21    136.44    7.37  0. 1.0000     0.      0.00 
   0 -10  21     74.84    7.68  0. 1.0000     0.      0.00 
   1 -10  21     68.60   11.95  0. 1.0000     0.      0.00 
   2 -10  21     36.34   24.64  0. 1.0000     0.      0.00 
   3 -10  21    306.65   26.35  0. 1.0000     0.      0.00 
   4 -10  21    157.32   12.92  0. 1.0000     0.      0.00 
   5 -10  21      6.17    7.55  0. 1.0000     0.      0.00 
   6 -10  21    156.62    7.75  0. 1.0000     0.      0.00 
   7 -10  21    143.60    6.57  0. 1.0000     0.      0.00 
   8 -10  21     11.08    5.24  0. 1.0000     0.      0.00 
   9 -10  21     17.74    8.35  0. 1.0000     0.      0.00 
  -5  -9  21    130.47    8.87  0. 1.0000     0.      0.00 
  -4  -9  21    172.52    8.90  0. 1.0000     0.      0.00 
  -3  -9  21     11.67    8.65  0. 1.0000     0.      0.00 
  -2  -9  21    115.80   11.55  0. 1.0000     0.      0.00 
  -1  -9  21     27.81   20.96  0. 1.0000     0.      0.00 
   0  -9  21    162.98   31.24  0. 1.0000     0.      0.00 
   1  -9  21     83.96   10.19  0. 1.0000     0.      0.00 
   2  -9  21    591.59   11.42  0. 1.0000     0.      0.00 
   3  -9  21     12.86    5.95  0. 1.0000     0.      0.00 
   4  -9  21     32.38    5.49  0. 1.0000     0.      0.00 
   5  -9  21    149.28    5.20  0. 1.0000     0.      0.00 
   6  -9  21    323.36    7.87  0. 1.0000     0.      0.00 
   7  -9  21     44.19    6.93  0. 1.0000     0.      0.00 
   8  -9  21     18.95    8.60  0. 1.0000     0.      0.00 
   9  -9  21      3.53   13.01  0. 1.0000     0.      0.00 
  -6  -8  21     34.73    9.98  0. 1.0000     0.      0.00 
  -5  -8  21     41.75   13.27  0. 1.0000     0.      0.00 
  -4  -8  21    108.52   20.05  0. 1.0000     0.      0.00 
  -3  -8  21     84.01   22.77  0. 1.0000     0.      0.00 
  -2  -8  21    688.13   16.52  0. 1.0000     0.      0.00 
  -1  -8  21      3.61    6.35  0. 1.0000     0.      0.00 
   0  -8  21      6.40    4.59  0. 1.0000     0.      0.00 
   1  -8  21    113.30    4.19  0. 1.0000     0.      0.00 
   2  -8  21    707.62    8.76  0. 1.0000     0.      0.00 
   3  -8  21      5.89    4.05  0. 1.0000     0.      0.00 
   4  -8  21      0.00    5.51  0. 1.0000     0.      0.00 
   5  -8  21     17.27    8.94  0. 1.0000     0.      0.00 
   6  -8  21    200.24   14.54  0. 1.0000     0.      0.00 
   7  -8  21      9.15   24.09  0. 1.0000     0.      0.00 
   8  -8  21    119.44   31.36  0. 1.0000     0.      0.00 
   9  -8  21     15.99   13.22  0. 1.0000     0.      0.00 
  10  -8  21     49.20   12.19  0. 1.0000     0.      0.00 
  -7  -7  21      0.00   21.38  0. 1.0000     0.      0.00 
  -6  -7  21    116.60   23.99  0. 1.0000     0.      0.00 
  -5  -7  21    162.60    9.96  0. 1.0000     0.      0.00 
  -4  -7  21     38.57    7.50  0. 1.0000     0.      0.00 
  -3  -7  21      4.91    6.00  0. 1.0000     0.      0.00 
  -2  -7  21   1011.62   12.92  0. 1.0000     0.      0.00 
  -1  -7  21    165.22    3.95  0. 1.0000     0.      0.00 
   0  -7  21     68.37    3.50  0. 1.0000     0.      0.00 
   1  -7  21    283.05    6.12  0. 1.0000     0.      0.00 
   2  -7  21    202.64    5.15  0. 1.0000     0.      0.00 
   3  -7  21      7.53    7.67  0. 1.0000     0.      0.00 
   4  -7  21    254.23   18.89  0. 1.0000     0.      0.00 
   5  -7  21    234.99   22.98  0. 1.0000     0.      0.00 
   6  -7  21     24.51   19.26  0. 1.0000     0.      0.00 
   7  -7  21    204.66    9.81  0. 1.0000     0.      0.00 
   8  -7  21      0.00    6.61  0. 1.0000     0.      0.00 
   9  -7  21    143.52    6.33  0. 1.0000     0.      0.00 
  10  -7  21     78.79    5.40  0. 1.0000     0.      0.00 
  -8  -6  21     16.72   11.66  0. 1.0000     0.      0.00 
  -7  -6  21     19.25    8.23  0. 1.0000     0.      0.00 
  -6  -6  21    476.76   11.91  0. 1.0000     0.      0.00 
  -5  -6  21    252.49    7.88  0. 1.0000     0.      0.00 
  -4  -6  21     27.07    4.74  0. 1.0000     0.      0.00 
  -3  -6  21    267.65    5.72  0. 1.0000     0.      0.00 
  -2  -6  21     70.51    4.24  0. 1.0000     0.      0.00 
  -1  -6  21    265.93    5.38  0. 1.0000     0.      0.00 
   0  -6  21     19.04    4.70  0. 1.0000     0.      0.00 
   1  -6  21    486.75   33.47  0. 1.0000     0.      0.00 
   2  -6  21      0.00   18.98  0. 1.0000     0.      0.00 
   3  -6  21    168.04    8.45  0. 1.0000     0.      0.00 
   4  -6  21     18.86    4.28  0. 1.0000     0.      0.00 
   5  -6  21   1015.55   13.57  0. 1.0000     0.      0.00 
   6  -6  21      0.00    3.88  0. 1.0000     0.      0.00 
   7  -6  21      9.12    4.20  0. 1.0000     0.      0.00 
   8  -6  21    105.28    5.80  0. 1.0000     0.      0.00 
   9  -6  21    269.28    8.60  0. 1.0000     0.      0.00 
  10  -6  21     11.31    9.32  0. 1.0000     0.      0.00 
  11  -6  21     73.74   14.42  0. 1.0000     0.      0.00 
  -9  -5  21    140.61    9.87  0. 1.0000     0.      0.00 
  -8  -5  21      0.00    7.23  0. 1.0000     0.      0.00 
  -7  -5  21    228.44    8.14  0. 1.0000     0.      0.00 
  -6  -5  21     14.13    6.00  0. 1.0000     0.      0.00 
  -5  -5  21    225.72    6.95  0. 1.0000     0.      0.00 
  -4  -5  21     91.60    4.85  0. 1.0000     0.      0.00 
  -3  -5  21    192.50    5.46  0. 1.0000     0.      0.00 
  -2  -5  21    192.06   10.89  0. 1.0000     0.      0.00 
  -1  -5  21    380.46   16.47  0. 1.0000     0.      0.00 
   0  -5  21    121.12   16.42  0. 1.0000     0.      0.00 
   1  -5  21   1277.79   14.90  0. 1.0000     0.      0.00 
   2  -5  21    506.71    7.17  0. 1.0000     0.      0.00 
   3  -5  21     19.31    3.12  0. 1.0000     0.      0.00 
   4  -5  21    291.93    5.93  0. 1.0000     0.      0.00 
   5  -5  21    686.15    9.30  0. 1.0000     0.      0.00 
   6  -5  21      2.60    4.24  0. 1.0000     0.      0.00 
   7  -5  21     17.12    6.47  0. 1.0000     0.      0.00 
   8  -5  21    157.90   13.20  0. 1.0000     0.      0.00 
   9  -5  21     71.54   29.93  0. 1.0000     0.      0.00 
  10  -5  21      0.00   30.31  0. 1.0000     0.      0.00 
  11  -5  21     57.24   16.59  0. 1.0000     0.      0.00 
  -9  -4  21     62.72    7.44  0. 1.0000     0.      0.00 
  -8  -4  21     26.78    7.43  0. 1.0000     0.      0.00 
  -7  -4  21     67.91    7.57  0. 1.0000     0.      0.00 
  -6  -4  21    321.39    9.46  0. 1.0000     0.      0.00 
  -5  -4  21    105.90    9.83  0. 1.0000     0.      0.00 
  -4  -4  21      2.81    8.61  0. 1.0000     0.      0.00 
  -3  -4  21    378.28    7.31  0. 1.0000     0.      0.00 
  -2  -4  21    469.57    6.74  0. 1.0000     0.      0.00 
  -1  -4  21      0.00    3.02  0. 1.0000     0.      0.00 
   0  -4  21    328.78    5.15  0. 1.0000     0.      0.00 
   1  -4  21    870.50   10.33  0. 1.0000     0.      0.00 
   2  -4  21    140.56    3.62  0. 1.0000     0.      0.00 
   3  -4  21    113.63    5.40  0. 1.0000     0.      0.00 
   4  -4  21    341.67    5.86  0. 1.0000     0.      0.00 
   5  -4  21    141.94    7.24  0. 1.0000     0.      0.00 
   6  -4  21    122.11   20.66  0. 1.0000     0.      0.00 
   7  -4  21    225.07   35.40  0. 1.0000     0.      0.00 
   8  -4  21    365.88   16.22  0. 1.0000     0.      0.00 
   9  -4  21      8.80    9.85  0. 1.0000     0.      0.00 
  10  -4  21     11.89    8.53  0. 1.0000     0.      0.00 
  11  -4  21      6.33    6.81  0. 1.0000     0.      0.00 
 -10  -3  21    188.56    9.23  0. 1.0000     0.      0.00 
  -9  -3  21      5.01    9.74  0. 1.0000     0.      0.00 
  -8  -3  21     31.39   12.62  0. 1.0000     0.      0.00 
  -7  -3  21      4.82   13.95  0. 1.0000     0.      0.00 
  -6  -3  21    393.07   10.17  0. 1.0000     0.      0.00 
  -5  -3  21    149.85    4.64  0. 1.0000     0.      0.00 
  -4  -3  21    215.40    4.55  0. 1.0000     0.      0.00 
  -3  -3  21    331.42    5.36  0. 1.0000     0.      0.00 
  -2  -3  21    369.91    5.09  0. 1.0000     0.      0.00 
  -1  -3  21    398.84    6.81  0. 1.0000     0.      0.00 
   0  -3  21    636.46    7.65  0. 1.0000     0.      0.00 
   1  -3  21     78.48    3.65  0. 1.0000     0.      0.00 
   2  -3  21    176.49    8.69  0. 1.0000     0.      0.00 
   3  -3  21     94.72    7.60  0. 1.0000     0.      0.00 
   4  -3  21    716.21   30.27  0. 1.0000     0.      0.00 
   5  -3  21    199.46    7.80  0. 1.0000     0.      0.00 
   6  -3  21    177.62    6.51  0. 1.0000     0.      0.00 
   7  -3  21      0.00    4.46  0. 1.0000     0.      0.00 
   8  -3  21    393.51   10.11  0. 1.0000     0.      0.00 
   9  -3  21      0.00    4.13  0. 1.0000     0.      0.00 
  10  -3  21     19.97    5.78  0. 1.0000     0.      0.00 
  11  -3  21     36.81   10.18  0. 1.0000     0.      0.00 
 -10  -2  21    189.44   26.52  0. 1.0000     0.      0.00 
  -9  -2  21     13.36    9.79  0. 1.0000     0.      0.00 
  -8  -2  21    169.24    8.54  0. 1.0000     0.      0.00 
  -7  -2  21      0.00    6.44  0. 1.0000     0.      0.00 
  -6  -2  21    170.15    4.57  0. 1.0000     0.      0.00 
  -5  -2  21     13.03    2.76  0. 1.0000     0.      0.00 
  -4  -2  21    763.76    8.96  0. 1.0000     0.      0.00 
  -3  -2  21     65.24    3.57  0. 1.0000     0.      0.00 
  -2  -2  21    185.62    3.85  0. 1.0000     0.      0.00 
  -1  -2  21    127.88    5.04  0. 1.0000     0.      0.00 
   2  -2  21    493.62   12.56  0. 1.0000     0.      0.00 
   3  -2  21      4.73    3.14  0. 1.0000     0.      0.00 
   4  -2  21    921.81   13.28  0. 1.0000     0.      0.00 
   5  -2  21    338.85    7.43  0. 1.0000     0.      0.00 
   6  -2  21    103.78    3.07  0. 1.0000     0.      0.00 
   7  -2  21    188.57    4.84  0. 1.0000     0.      0.00 
   8  -2  21    368.76   11.28  0. 1.0000     0.      0.00 
   9  -2  21     27.45    8.77  0. 1.0000     0.      0.00 
  10  -2  21      5.23   18.11  0. 1.0000     0.      0.00 
  11  -2  21     92.89   54.19  0. 1.0000     0.      0.00 
 -11  -1  21    156.38   12.15  0. 1.0000     0.      0.00 
 -10  -1  21     43.59    7.49  0. 1.0000     0.      0.00 
  -9  -1  21      9.22    5.99  0. 1.0000     0.      0.00 
  -8  -1  21    611.08   11.44  0. 1.0000     0.      0.00 
  -7  -1  21    209.59    5.15  0. 1.0000     0.      0.00 
  -6  -1  21     10.45    3.81  0. 1.0000     0.      0.00 
  -5  -1  21    273.96    5.37  0. 1.0000     0.      0.00 
  -4  -1  21    111.65    6.82  0. 1.0000     0.      0.00 
  -3  -1  21    644.70   22.54  0. 1.0000     0.      0.00 
  -2  -1  21    642.83   42.42  0. 1.0000     0.      0.00 
  -1  -1  21     52.97   20.88  0. 1.0000     0.      0.00 
   0  -1  21    144.38    3.17  0. 1.0000     0.      0.00 
   1  -1  21    800.66   11.22  0. 1.0000     0.      0.00 
   2  -1  21     16.35    2.62  0. 1.0000     0.      0.00 
   3  -1  21    475.74    6.45  0. 1.0000     0.      0.00 
   4  -1  21    326.56    5.59  0. 1.0000     0.      0.00 
   5  -1  21     28.78    4.55  0. 1.0000     0.      0.00 
   6  -1  21     83.53    5.79  0. 1.0000     0.      0.00 
   7  -1  21    394.64   14.88  0. 1.0000     0.      0.00 
   8  -1  21     32.06   28.58  0. 1.0000     0.      0.00 
   9  -1  21    106.89   38.76  0. 1.0000     0.      0.00 
  10  -1  21     12.88   19.87  0. 1.0000     0.      0.00 
  11  -1  21     32.60   14.58  0. 1.0000     0.      0.00 
 -11   0  21    136.57    7.29  0. 1.0000     0.      0.00 
 -10   0  21     11.45    5.92  0. 1.0000     0.      0.00 
  -9   0  21     46.06    6.10  0. 1.0000     0.      0.00 
  -8   0  21     18.52    8.63  0. 1.0000     0.      0.00 
  -7   0  21    639.16   13.36  0. 1.0000     0.      0.00 
  -6   0  21      0.00   11.18  0. 1.0000     0.      0.00 
  -5   0  21     70.62   16.05  0. 1.0000     0.      0.00 
  -4   0  21     41.42    4.50  0. 1.0000     0.      0.00 
  -3   0  21    463.88    7.96  0. 1.0000     0.      0.00 
  -2   0  21    189.43    4.50  0. 1.0000     0.      0.00 
  -1   0  21    907.49    9.88  0. 1.0000     0.      0.00 
   0   0  21      8.29    1.60  0. 1.0000     0.      0.00 
   1   0  21     67.95    4.11  0. 1.0000     0.      0.00 
   2   0  21    379.09    5.44  0. 1.0000     0.      0.00 
   3   0  21    547.92    8.87  0. 1.0000     0.      0.00 
   4   0  21     56.99    6.46  0. 1.0000     0.      0.00 
   6   0  21      6.35   24.61  0. 1.0000     0.      0.00 
   7   0  21    274.12   14.45  0. 1.0000     0.      0.00 
   8   0  21    134.64   11.23  0. 1.0000     0.      0.00 
   9   0  21     12.98    7.35  0. 1.0000     0.      0.00 
  10   0  21      8.07    6.11  0. 1.0000     0.      0.00 
 -11   1  21    268.43   11.52  0. 1.0000     0.      0.00 
 -10   1  21     20.62   12.64  0. 1.0000     0.      0.00 
  -9   1  21     42.47   18.71  0. 1.0000     0.      0.00 
  -8   1  21    328.01   37.90  0. 1.0000     0.      0.00 
  -7   1  21    320.26   10.14  0. 1.0000     0.      0.00 
  -6   1  21    228.86    5.31  0. 1.0000     0.      0.00 
  -5   1  21    638.80    8.32  0. 1.0000     0.      0.00 
  -4   1  21    222.86    5.08  0. 1.0000     0.      0.00 
  -3   1  21    111.05    3.77  0. 1.0000     0.      0.00 
  -2   1  21    260.17    3.83  0. 1.0000     0.      0.00 
  -1   1  21    954.63   12.76  0. 1.0000     0.      0.00 
   0   1  21     21.05    2.81  0. 1.0000     0.      0.00 
   4   1  21    396.03   32.88  0. 1.0000     0.      0.00 
   5   1  21    263.92    6.27  0. 1.0000     0.      0.00 
   6   1  21     31.28    4.25  0. 1.0000     0.      0.00 
   7   1  21    101.02    6.02  0. 1.0000     0.      0.00 
   8   1  21     25.99    4.38  0. 1.0000     0.      0.00 
   9   1  21     44.63    6.64  0. 1.0000     0.      0.00 
  10   1  21    117.80   11.43  0. 1.0000     0.      0.00 
 -11   2  21     68.23   20.65  0. 1.0000     0.      0.00 
 -10   2  21     29.43   11.42  0. 1.0000     0.      0.00 
  -9   2  21     30.65    7.33  0. 1.0000     0.      0.00 
  -8   2  21    337.35   11.63  0. 1.0000     0.      0.00 
  -7   2  21     76.51    4.59  0. 1.0000     0.      0.00 
  -6   2  21     10.54    3.06  0. 1.0000     0.      0.00 
  -5   2  21    806.54   10.50  0. 1.0000     0.      0.00 
  -4   2  21    688.21   11.52  0. 1.0000     0.      0.00 
  -3   2  21     32.59    3.62  0. 1.0000     0.      0.00 
  -2   2  21    278.95   15.87  0. 1.0000     0.      0.00 
   2   2  21    300.57    6.85  0. 1.0000     0.      0.00 
   3   2  21      0.00    4.01  0. 1.0000     0.      0.00 
   4   2  21    254.47    4.66  0. 1.0000     0.      0.00 
   5   2  21     25.56    2.68  0. 1.0000     0.      0.00 
   6   2  21    196.34    4.95  0. 1.0000     0.      0.00 
   7   2  21    143.42   11.76  0. 1.0000     0.      0.00 
   8   2  21      5.36   10.80  0. 1.0000     0.      0.00 
   9   2  21     24.77   19.97  0. 1.0000     0.      0.00 
 -11   3  21     36.01    8.05  0. 1.0000     0.      0.00 
 -10   3  21      7.32    6.53  0. 1.0000     0.      0.00 
  -9   3  21    175.82    5.92  0. 1.0000     0.      0.00 
  -8   3  21    394.99   11.54  0. 1.0000     0.      0.00 
  -7   3  21     82.43    4.53  0. 1.0000     0.      0.00 
  -6   3  21    235.16    6.40  0. 1.0000     0.      0.00 
  -5   3  21      0.00    8.07  0. 1.0000     0.      0.00 
  -4   3  21    564.76   24.79  0. 1.0000     0.      0.00 
  -3   3  21     81.90   12.61  0. 1.0000     0.      0.00 
  -2   3  21    227.28   12.80  0. 1.0000     0.      0.00 
  -1   3  21    181.89    7.61  0. 1.0000     0.      0.00 
   0   3  21    436.99    5.62  0. 1.0000     0.      0.00 
   1   3  21     22.85    2.49  0. 1.0000     0.      0.00 
   2   3  21    604.55    7.31  0. 1.0000     0.      0.00 
   3   3  21      0.00    5.31  0. 1.0000     0.      0.00 
   4   3  21     11.08    4.27  0. 1.0000     0.      0.00 
   5   3  21    193.48    7.30  0. 1.0000     0.      0.00 
   6   3  21    291.81   27.93  0. 1.0000     0.      0.00 
 -11   4  21      6.55    6.61  0. 1.0000     0.      0.00 
 -10   4  21    112.23    8.02  0. 1.0000     0.      0.00 
  -9   4  21      7.20    8.10  0. 1.0000     0.      0.00 
  -8   4  21    340.82   20.12  0. 1.0000     0.      0.00 
  -7   4  21     25.40   27.48  0. 1.0000     0.      0.00 
  -6   4  21     24.42   17.93  0. 1.0000     0.      0.00 
  -5   4  21    386.59   13.28  0. 1.0000     0.      0.00 
  -4   4  21    467.89    9.13  0. 1.0000     0.      0.00 
  -3   4  21    207.41    4.76  0. 1.0000     0.      0.00 
  -2   4  21    599.85    7.64  0. 1.0000     0.      0.00 
  -1   4  21    399.69    7.99  0. 1.0000     0.      0.00 
   0   4  21      2.74    2.51  0. 1.0000     0.      0.00 
   1   4  21    204.43    4.43  0. 1.0000     0.      0.00 
   2   4  21    309.25    7.79  0. 1.0000     0.      0.00 
   7   4  21     73.95   14.77  0. 1.0000     0.      0.00 
   8   4  21     32.09    8.08  0. 1.0000     0.      0.00 
   9   4  21     15.25    8.30  0. 1.0000     0.      0.00 
 -11   5  21     32.96   19.29  0. 1.0000     0.      0.00 
 -10   5  21     25.57   22.17  0. 1.0000     0.      0.00 
  -9   5  21    284.46   33.03  0. 1.0000     0.      0.00 
  -8   5  21    240.11   12.21  0. 1.0000     0.      0.00 
  -7   5  21     13.37   17.19  0. 1.0000     0.      0.00 
  -6   5  21     69.35    4.64  0. 1.0000     0.      0.00 
  -5   5  21    526.60    8.22  0. 1.0000     0.      0.00 
  -4   5  21     16.81    2.59  0. 1.0000     0.      0.00 
  -3   5  21    199.17    4.39  0. 1.0000     0.      0.00 
  -2   5  21    302.66    6.04  0. 1.0000     0.      0.00 
  -1   5  21    240.24    6.86  0. 1.0000     0.      0.00 
   4   5  21    181.19   10.70  0. 1.0000     0.      0.00 
   5   5  21    126.68    6.77  0. 1.0000     0.      0.00 
   6   5  21     30.19    6.16  0. 1.0000     0.      0.00 
   7   5  21     11.26    5.98  0. 1.0000     0.      0.00 
   8   5  21     34.78    9.01  0. 1.0000     0.      0.00 
 -11   6  21     13.20    7.15  0. 1.0000     0.      0.00 
 -10   6  21     43.94    9.37  0. 1.0000     0.      0.00 
  -9   6  21    218.91    7.86  0. 1.0000     0.      0.00 
  -8   6  21    117.13    6.29  0. 1.0000     0.      0.00 
  -7   6  21    127.64    4.97  0. 1.0000     0.      0.00 
  -6   6  21     24.45    6.52  0. 1.0000     0.      0.00 
  -5   6  21    403.12    7.28  0. 1.0000     0.      0.00 
  -4   6  21    234.11    9.01  0. 1.0000     0.      0.00 
  -3   6  21    185.76   12.10  0. 1.0000     0.      0.00 
  -2   6  21      0.00   22.39  0. 1.0000     0.      0.00 
   0   6  21     43.45   15.89  0. 1.0000     0.      0.00 
   1   6  21    177.42    9.35  0. 1.0000     0.      0.00 
   2   6  21    261.52    5.90  0. 1.0000     0.      0.00 
   3   6  21    120.59    5.48  0. 1.0000     0.      0.00 
   4   6  21      8.53    4.42  0. 1.0000     0.      0.00 
   5   6  21     81.57    6.99  0. 1.0000     0.      0.00 
   6   6  21      8.77    8.58  0. 1.0000     0.      0.00 
   7   6  21      6.40   16.09  0. 1.0000     0.      0.00 
 -10   7  21     17.13    6.09  0. 1.0000     0.      0.00 
  -9   7  21     57.22    6.54  0. 1.0000     0.      0.00 
  -8   7  21     18.61    6.74  0. 1.0000     0.      0.00 
  -7   7  21    195.87   15.19  0. 1.0000     0.      0.00 
  -6   7  21     25.55   17.89  0. 1.0000     0.      0.00 
  -5   7  21    141.29   70.64  0. 1.0000     0.      0.00 
  -4   7  21      0.00   43.50  0. 1.0000     0.      0.00 
  -3   7  21     20.66   13.71  0. 1.0000     0.      0.00 
  -2   7  21    307.19   10.44  0. 1.0000     0.      0.00 
  -1   7  21    407.18    7.95  0. 1.0000     0.      0.00 
   0   7  21      6.07    3.80  0. 1.0000     0.      0.00 
   1   7  21     46.78    3.74  0. 1.0000     0.      0.00 
   2   7  21    135.41    5.62  0. 1.0000     0.      0.00 
   3   7  21     44.11    6.78  0. 1.0000     0.      0.00 
   4   7  21     56.77   13.75  0. 1.0000     0.      0.00 
 -10   8  21     82.03   14.56  0. 1.0000     0.      0.00 
  -9   8  21     12.39   19.99  0. 1.0000     0.      0.00 
  -8   8  21     17.05   40.76  0. 1.0000     0.      0.00 
  -7   8  21      0.00   32.26  0. 1.0000     0.      0.00 
  -6   8  21    170.26   18.25  0. 1.0000     0.      0.00 
  -5   8  21    351.47   11.69  0. 1.0000     0.      0.00 
  -4   8  21     12.51    7.05  0. 1.0000     0.      0.00 
  -3   8  21      0.00    5.72  0. 1.0000     0.      0.00 
  -2   8  21    404.68    7.21  0. 1.0000     0.      0.00 
  -1   8  21      1.96    4.82  0. 1.0000     0.      0.00 
   0   8  21    114.55    7.60  0. 1.0000     0.      0.00 
   1   8  21     13.40   15.72  0. 1.0000     0.      0.00 
   5   8  21      0.00   46.04  0. 1.0000     0.      0.00 
  -9   9  21      4.14   13.98  0. 1.0000     0.      0.00 
  -8   9  21     11.07   10.03  0. 1.0000     0.      0.00 
  -7   9  21     35.68    8.18  0. 1.0000     0.      0.00 
  -6   9  21    203.45    6.76  0. 1.0000     0.      0.00 
  -5   9  21     67.17    4.39  0. 1.0000     0.      0.00 
  -4   9  21    213.66    6.86  0. 1.0000     0.      0.00 
  -3   9  21     16.21    8.77  0. 1.0000     0.      0.00 
  -2   9  21     45.30   16.09  0. 1.0000     0.      0.00 
   2   9  21    180.39   27.87  0. 1.0000     0.      0.00 
   3   9  21      0.00   14.57  0. 1.0000     0.      0.00 
   4   9  21     18.92    9.96  0. 1.0000     0.      0.00 
  -8  10  21     70.47    6.03  0. 1.0000     0.      0.00 
  -7  10  21     70.65    7.29  0. 1.0000     0.      0.00 
  -6  10  21     29.42   12.23  0. 1.0000     0.      0.00 
  -5  10  21     49.13   16.53  0. 1.0000     0.      0.00 
  -4  10  21     35.31   24.17  0. 1.0000     0.      0.00 
  -3  10  21     21.60   57.20  0. 1.0000     0.      0.00 
  -1  10  21     15.42   22.25  0. 1.0000     0.      0.00 
   0  10  21      2.56   14.84  0. 1.0000     0.      0.00 
   1  10  21    154.22    9.95  0. 1.0000     0.      0.00 
   2  10  21     64.45    7.48  0. 1.0000     0.      0.00 
   3  10  21      6.88   25.71  0. 1.0000     0.      0.00 
  -6  11  21      9.08   16.73  0. 1.0000     0.      0.00 
  -5  11  21      0.00   44.53  0. 1.0000     0.      0.00 
  -4  11  21      3.97   18.44  0. 1.0000     0.      0.00 
  -3  11  21    133.71   14.23  0. 1.0000     0.      0.00 
  -2  11  21    229.42   14.39  0. 1.0000     0.      0.00 
  -1  11  21     11.89    6.71  0. 1.0000     0.      0.00 
   0  11  21     22.19    5.68  0. 1.0000     0.      0.00 
   1 -12  22      0.89    8.91  0. 1.0000     0.      0.00 
   2 -12  22     10.54    6.72  0. 1.0000     0.      0.00 
   3 -12  22      9.87    5.51  0. 1.0000     0.      0.00 
   4 -12  22     51.23    7.84  0. 1.0000     0.      0.00 
   5 -12  22     14.99    8.15  0. 1.0000     0.      0.00 
  -2 -11  22     35.18   10.19  0. 1.0000     0.      0.00 
  -1 -11  22     24.95    7.15  0. 1.0000     0.      0.00 
   0 -11  22     53.64    5.97  0. 1.0000     0.      0.00 
   1 -11  22    142.98    6.60  0. 1.0000     0.      0.00 
   2 -11  22     71.52    7.07  0. 1.0000     0.      0.00 
   3 -11  22     15.10    8.40  0. 1.0000     0.      0.00 
   4 -11  22    149.94   13.50  0. 1.0000     0.      0.00 
   5 -11  22      9.19   18.75  0. 1.0000     0.      0.00 
   6 -11  22    263.12   41.69  0. 1.0000     0.      0.00 
   7 -11  22     25.65   14.46  0. 1.0000     0.      0.00 
  -4 -10  22    256.41    9.77  0. 1.0000     0.      0.00 
  -3 -10  22     19.01    7.16  0. 1.0000     0.      0.00 
  -2 -10  22     14.77    7.35  0. 1.0000     0.      0.00 
  -1 -10  22     48.18    7.24  0. 1.0000     0.      0.00 
   0 -10  22     10.05    7.37  0. 1.0000     0.      0.00 
   1 -10  22     11.46   12.52  0. 1.0000     0.      0.00 
   2 -10  22    585.40   32.31  0. 1.0000     0.      0.00 
   3 -10  22    296.63   49.26  0. 1.0000     0.      0.00 
   4 -10  22     16.79   11.58  0. 1.0000     0.      0.00 
   5 -10  22      8.99    7.27  0. 1.0000     0.      0.00 
   6 -10  22     36.03    7.01  0. 1.0000     0.      0.00 
   7 -10  22    201.71    7.33  0. 1.0000     0.      0.00 
   8 -10  22      9.66    5.71  0. 1.0000     0.      0.00 
  -5  -9  22     26.42    8.30  0. 1.0000     0.      0.00 
  -4  -9  22     24.99    8.85  0. 1.0000     0.      0.00 
  -3  -9  22     43.58    8.24  0. 1.0000     0.      0.00 
  -2  -9  22      2.76   14.48  0. 1.0000     0.      0.00 
  -1  -9  22    727.51   47.44  0. 1.0000     0.      0.00 
   0  -9  22     83.01   30.24  0. 1.0000     0.      0.00 
   1  -9  22     10.61    9.26  0. 1.0000     0.      0.00 
   2  -9  22    265.86    8.47  0. 1.0000     0.      0.00 
   3  -9  22    519.88   11.60  0. 1.0000     0.      0.00 
   4  -9  22    206.61    5.99  0. 1.0000     0.      0.00 
   5  -9  22      8.94    4.92  0. 1.0000     0.      0.00 
   6  -9  22     14.06    5.99  0. 1.0000     0.      0.00 
   7  -9  22    135.62    7.37  0. 1.0000     0.      0.00 
   8  -9  22      4.38    8.94  0. 1.0000     0.      0.00 
   9  -9  22    237.06   15.36  0. 1.0000     0.      0.00 
  -6  -8  22     15.93   10.54  0. 1.0000     0.      0.00 
  -5  -8  22    132.65   14.39  0. 1.0000     0.      0.00 
  -4  -8  22      0.00   19.58  0. 1.0000     0.      0.00 
  -3  -8  22     60.79   16.99  0. 1.0000     0.      0.00 
  -2  -8  22     37.48   16.02  0. 1.0000     0.      0.00 
  -1  -8  22   1145.72   18.19  0. 1.0000     0.      0.00 
   0  -8  22      5.93    5.81  0. 1.0000     0.      0.00 
   1  -8  22      6.16    4.57  0. 1.0000     0.      0.00 
   2  -8  22     40.22    4.03  0. 1.0000     0.      0.00 
   3  -8  22    129.53    6.46  0. 1.0000     0.      0.00 
   4  -8  22    153.20    8.08  0. 1.0000     0.      0.00 
   5  -8  22    541.68   13.41  0. 1.0000     0.      0.00 
   6  -8  22     30.19   10.78  0. 1.0000     0.      0.00 
   7  -8  22     36.82   21.07  0. 1.0000     0.      0.00 
   8  -8  22     40.95   30.08  0. 1.0000     0.      0.00 
   9  -8  22    149.19   12.93  0. 1.0000     0.      0.00 
  10  -8  22    228.08   14.73  0. 1.0000     0.      0.00 
  -7  -7  22      0.00   23.13  0. 1.0000     0.      0.00 
  -6  -7  22    214.76   18.05  0. 1.0000     0.      0.00 
  -5  -7  22    479.87   35.94  0. 1.0000     0.      0.00 
  -4  -7  22      0.00    7.63  0. 1.0000     0.      0.00 
  -3  -7  22    131.71    6.97  0. 1.0000     0.      0.00 
  -2  -7  22     63.10    5.03  0. 1.0000     0.      0.00 
  -1  -7  22     36.93    3.60  0. 1.0000     0.      0.00 
   0  -7  22    248.32    5.79  0. 1.0000     0.      0.00 
   1  -7  22     16.92    4.02  0. 1.0000     0.      0.00 
   2  -7  22    420.64    7.45  0. 1.0000     0.      0.00 
   3  -7  22     89.24   10.53  0. 1.0000     0.      0.00 
   4  -7  22     19.98   17.12  0. 1.0000     0.      0.00 
   5  -7  22    534.88   58.32  0. 1.0000     0.      0.00 
   6  -7  22    584.13   22.27  0. 1.0000     0.      0.00 
   7  -7  22    127.47    9.36  0. 1.0000     0.      0.00 
   8  -7  22     19.56    6.17  0. 1.0000     0.      0.00 
   9  -7  22     77.48    6.17  0. 1.0000     0.      0.00 
  10  -7  22    151.38    6.54  0. 1.0000     0.      0.00 
  -8  -6  22     11.59   12.89  0. 1.0000     0.      0.00 
  -7  -6  22     29.70    8.79  0. 1.0000     0.      0.00 
  -6  -6  22    489.95   11.45  0. 1.0000     0.      0.00 
  -5  -6  22    136.16    6.76  0. 1.0000     0.      0.00 
  -4  -6  22     13.51    5.09  0. 1.0000     0.      0.00 
  -3  -6  22      4.44    4.32  0. 1.0000     0.      0.00 
  -2  -6  22    375.71    7.49  0. 1.0000     0.      0.00 
  -1  -6  22     78.22    4.86  0. 1.0000     0.      0.00 
   0  -6  22    227.20    6.34  0. 1.0000     0.      0.00 
   1  -6  22    231.03   38.40  0. 1.0000     0.      0.00 
   2  -6  22    829.89   32.07  0. 1.0000     0.      0.00 
   3  -6  22      6.72    7.50  0. 1.0000     0.      0.00 
   4  -6  22      1.46    4.78  0. 1.0000     0.      0.00 
   5  -6  22      0.00    5.01  0. 1.0000     0.      0.00 
   6  -6  22    528.62    9.52  0. 1.0000     0.      0.00 
   7  -6  22    139.13    5.75  0. 1.0000     0.      0.00 
   8  -6  22    137.84    6.04  0. 1.0000     0.      0.00 
   9  -6  22     13.12    7.59  0. 1.0000     0.      0.00 
  10  -6  22     39.82   10.28  0. 1.0000     0.      0.00 
  -8  -5  22     11.45    8.08  0. 1.0000     0.      0.00 
  -7  -5  22    136.41    7.24  0. 1.0000     0.      0.00 
  -6  -5  22    342.34    9.02  0. 1.0000     0.      0.00 
  -5  -5  22    155.72    7.30  0. 1.0000     0.      0.00 
  -4  -5  22      9.08    5.16  0. 1.0000     0.      0.00 
  -3  -5  22     92.65    7.79  0. 1.0000     0.      0.00 
  -2  -5  22    851.02   22.18  0. 1.0000     0.      0.00 
  -1  -5  22     78.45   14.98  0. 1.0000     0.      0.00 
   0  -5  22    393.73    9.66  0. 1.0000     0.      0.00 
   1  -5  22      0.00    3.84  0. 1.0000     0.      0.00 
   2  -5  22    417.42    7.26  0. 1.0000     0.      0.00 
   3  -5  22    178.62    4.52  0. 1.0000     0.      0.00 
   4  -5  22     23.73    2.98  0. 1.0000     0.      0.00 
   5  -5  22    148.90    5.64  0. 1.0000     0.      0.00 
   6  -5  22    175.02    5.85  0. 1.0000     0.      0.00 
   7  -5  22     22.34    8.97  0. 1.0000     0.      0.00 
   8  -5  22    412.55   16.71  0. 1.0000     0.      0.00 
   9  -5  22    102.10   30.42  0. 1.0000     0.      0.00 
  11  -5  22     12.10    7.51  0. 1.0000     0.      0.00 
  -9  -4  22     13.60    8.03  0. 1.0000     0.      0.00 
  -8  -4  22     23.00    7.64  0. 1.0000     0.      0.00 
  -7  -4  22     22.69    7.69  0. 1.0000     0.      0.00 
  -6  -4  22     17.03   11.90  0. 1.0000     0.      0.00 
  -5  -4  22    186.49   13.93  0. 1.0000     0.      0.00 
  -4  -4  22    300.52   11.00  0. 1.0000     0.      0.00 
  -3  -4  22    714.61   26.55  0. 1.0000     0.      0.00 
  -2  -4  22    693.10   10.68  0. 1.0000     0.      0.00 
  -1  -4  22    122.36    4.33  0. 1.0000     0.      0.00 
   0  -4  22     65.44    3.08  0. 1.0000     0.      0.00 
   1  -4  22   1142.19   13.28  0. 1.0000     0.      0.00 
   2  -4  22      1.68    3.92  0. 1.0000     0.      0.00 
   3  -4  22    246.20    5.31  0. 1.0000     0.      0.00 
   4  -4  22    348.79    7.82  0. 1.0000     0.      0.00 
   5  -4  22    395.51   12.76  0. 1.0000     0.      0.00 
   6  -4  22     35.87   31.22  0. 1.0000     0.      0.00 
   7  -4  22      0.00   31.16  0. 1.0000     0.      0.00 
   8  -4  22     28.28   13.96  0. 1.0000     0.      0.00 
   9  -4  22    483.46   16.97  0. 1.0000     0.      0.00 
  10  -4  22     49.69   10.25  0. 1.0000     0.      0.00 
  11  -4  22     40.33    7.48  0. 1.0000     0.      0.00 
 -10  -3  22     13.46   41.41  0. 1.0000     0.      0.00 
  -9  -3  22     60.39   10.14  0. 1.0000     0.      0.00 
  -8  -3  22     13.29   13.26  0. 1.0000     0.      0.00 
  -7  -3  22    634.18   50.91  0. 1.0000     0.      0.00 
  -6  -3  22     63.45    9.77  0. 1.0000     0.      0.00 
  -5  -3  22     30.03    4.64  0. 1.0000     0.      0.00 
  -4  -3  22    500.92    7.04  0. 1.0000     0.      0.00 
  -3  -3  22   1310.98   14.84  0. 1.0000     0.      0.00 
  -2  -3  22    147.68    4.74  0. 1.0000     0.      0.00 
  -1  -3  22     14.60    2.61  0. 1.0000     0.      0.00 
   0  -3  22     37.58    3.79  0. 1.0000     0.      0.00 
   1  -3  22   1227.03   15.00  0. 1.0000     0.      0.00 
   2  -3  22     22.05    5.61  0. 1.0000     0.      0.00 
   3  -3  22    259.19   13.70  0. 1.0000     0.      0.00 
   4  -3  22     57.67    9.72  0. 1.0000     0.      0.00 
   5  -3  22    424.62   15.82  0. 1.0000     0.      0.00 
   6  -3  22     88.80    6.32  0. 1.0000     0.      0.00 
   7  -3  22     73.12    6.00  0. 1.0000     0.      0.00 
   8  -3  22     64.78    5.60  0. 1.0000     0.      0.00 
   9  -3  22    153.49    6.34  0. 1.0000     0.      0.00 
  10  -3  22      0.00    6.63  0. 1.0000     0.      0.00 
  11  -3  22    134.44   11.27  0. 1.0000     0.      0.00 
 -10  -2  22    100.24   19.26  0. 1.0000     0.      0.00 
  -9  -2  22     13.06   10.72  0. 1.0000     0.      0.00 
  -8  -2  22     14.58    8.70  0. 1.0000     0.      0.00 
  -7  -2  22   1203.91   17.96  0. 1.0000     0.      0.00 
  -6  -2  22     18.98    4.15  0. 1.0000     0.      0.00 
  -5  -2  22     41.87    3.04  0. 1.0000     0.      0.00 
  -4  -2  22      8.00    3.18  0. 1.0000     0.      0.00 
  -3  -2  22    635.13    8.01  0. 1.0000     0.      0.00 
  -2  -2  22    617.30    8.76  0. 1.0000     0.      0.00 
  -1  -2  22    354.32   12.40  0. 1.0000     0.      0.00 
   2  -2  22    179.73    8.13  0. 1.0000     0.      0.00 
   3  -2  22    271.12    6.75  0. 1.0000     0.      0.00 
   4  -2  22    879.46   11.03  0. 1.0000     0.      0.00 
   5  -2  22     15.21    3.68  0. 1.0000     0.      0.00 
   6  -2  22    111.80    3.38  0. 1.0000     0.      0.00 
   7  -2  22    208.07    5.83  0. 1.0000     0.      0.00 
   8  -2  22     95.35    8.76  0. 1.0000     0.      0.00 
   9  -2  22     51.53   10.06  0. 1.0000     0.      0.00 
  10  -2  22     17.61   17.05  0. 1.0000     0.      0.00 
  11  -2  22     39.03   13.59  0. 1.0000     0.      0.00 
 -10  -1  22     12.75    7.64  0. 1.0000     0.      0.00 
  -9  -1  22     37.00    6.34  0. 1.0000     0.      0.00 
  -8  -1  22      2.00    6.03  0. 1.0000     0.      0.00 
  -7  -1  22    385.00    8.11  0. 1.0000     0.      0.00 
  -6  -1  22    233.42    5.37  0. 1.0000     0.      0.00 
  -5  -1  22     25.42    4.32  0. 1.0000     0.      0.00 
  -4  -1  22    589.62   12.03  0. 1.0000     0.      0.00 
  -3  -1  22    307.95   14.16  0. 1.0000     0.      0.00 
  -1  -1  22   1196.69   32.37  0. 1.0000     0.      0.00 
   0  -1  22   1209.77   14.94  0. 1.0000     0.      0.00 
   1  -1  22     14.94    3.65  0. 1.0000     0.      0.00 
   2  -1  22     10.63    2.68  0. 1.0000     0.      0.00 
   3  -1  22     37.67    2.70  0. 1.0000     0.      0.00 
   4  -1  22   1425.68   19.44  0. 1.0000     0.      0.00 
   5  -1  22     12.85    3.52  0. 1.0000     0.      0.00 
   6  -1  22     30.29    5.82  0. 1.0000     0.      0.00 
   7  -1  22    127.33   13.45  0. 1.0000     0.      0.00 
   8  -1  22    217.25   37.29  0. 1.0000     0.      0.00 
   9  -1  22     27.60   40.60  0. 1.0000     0.      0.00 
  10  -1  22     69.98   21.12  0. 1.0000     0.      0.00 
 -10   0  22      9.81    6.11  0. 1.0000     0.      0.00 
  -9   0  22     18.14    6.88  0. 1.0000     0.      0.00 
  -8   0  22    184.36    8.81  0. 1.0000     0.      0.00 
  -7   0  22     79.43    8.90  0. 1.0000     0.      0.00 
  -6   0  22    238.09   12.95  0. 1.0000     0.      0.00 
  -5   0  22    122.22   13.25  0. 1.0000     0.      0.00 
  -4   0  22   1427.89   22.69  0. 1.0000     0.      0.00 
  -3   0  22     84.57    3.55  0. 1.0000     0.      0.00 
  -2   0  22     71.73    3.19  0. 1.0000     0.      0.00 
  -1   0  22    119.37    4.33  0. 1.0000     0.      0.00 
   0   0  22   2086.97   25.70  0. 1.0000     0.      0.00 
   1   0  22    616.21    6.97  0. 1.0000     0.      0.00 
   2   0  22     99.58    3.15  0. 1.0000     0.      0.00 
   3   0  22      8.71    3.93  0. 1.0000     0.      0.00 
   4   0  22    753.07   41.21  0. 1.0000     0.      0.00 
   6   0  22    225.62   44.67  0. 1.0000     0.      0.00 
   7   0  22    248.94   19.83  0. 1.0000     0.      0.00 
   8   0  22     49.73    9.91  0. 1.0000     0.      0.00 
   9   0  22     42.35    8.48  0. 1.0000     0.      0.00 
  10   0  22    112.18    7.00  0. 1.0000     0.      0.00 
 -11   1  22     33.83    9.90  0. 1.0000     0.      0.00 
 -10   1  22     26.34   12.91  0. 1.0000     0.      0.00 
  -9   1  22     55.22   28.69  0. 1.0000     0.      0.00 
  -8   1  22    440.41   55.71  0. 1.0000     0.      0.00 
  -7   1  22     48.90   12.49  0. 1.0000     0.      0.00 
  -6   1  22     63.10    4.28  0. 1.0000     0.      0.00 
  -5   1  22     28.79    3.55  0. 1.0000     0.      0.00 
  -4   1  22   1172.35   17.77  0. 1.0000     0.      0.00 
  -3   1  22    152.23    3.34  0. 1.0000     0.      0.00 
  -2   1  22     46.83    2.57  0. 1.0000     0.      0.00 
  -1   1  22    585.27    7.38  0. 1.0000     0.      0.00 
   0   1  22    731.51   12.18  0. 1.0000     0.      0.00 
   4   1  22      4.90   22.92  0. 1.0000     0.      0.00 
   5   1  22     16.13    5.86  0. 1.0000     0.      0.00 
   6   1  22    133.18    5.21  0. 1.0000     0.      0.00 
   7   1  22    784.58   12.97  0. 1.0000     0.      0.00 
   8   1  22      4.07    4.73  0. 1.0000     0.      0.00 
   9   1  22      6.92    7.20  0. 1.0000     0.      0.00 
  10   1  22     97.09   11.97  0. 1.0000     0.      0.00 
 -11   2  22    171.46   20.40  0. 1.0000     0.      0.00 
 -10   2  22      5.01   12.61  0. 1.0000     0.      0.00 
  -9   2  22    125.17    8.02  0. 1.0000     0.      0.00 
  -8   2  22    327.15    8.28  0. 1.0000     0.      0.00 
  -7   2  22     50.08    5.71  0. 1.0000     0.      0.00 
  -6   2  22     45.07    3.46  0. 1.0000     0.      0.00 
  -5   2  22    366.16    5.50  0. 1.0000     0.      0.00 
  -4   2  22     77.05    5.47  0. 1.0000     0.      0.00 
  -3   2  22    497.55    8.65  0. 1.0000     0.      0.00 
  -2   2  22     60.80   14.83  0. 1.0000     0.      0.00 
   2   2  22    224.72    5.72  0. 1.0000     0.      0.00 
   3   2  22   1444.82   18.35  0. 1.0000     0.      0.00 
   4   2  22    192.76    4.34  0. 1.0000     0.      0.00 
   5   2  22     43.66    3.42  0. 1.0000     0.      0.00 
   6   2  22     65.00    5.66  0. 1.0000     0.      0.00 
   7   2  22    290.42   10.03  0. 1.0000     0.      0.00 
   8   2  22     13.24   11.51  0. 1.0000     0.      0.00 
   9   2  22     19.09   20.90  0. 1.0000     0.      0.00 
 -11   3  22      6.48    8.54  0. 1.0000     0.      0.00 
 -10   3  22    131.70    7.28  0. 1.0000     0.      0.00 
  -9   3  22    316.85    7.54  0. 1.0000     0.      0.00 
  -8   3  22      2.39    5.01  0. 1.0000     0.      0.00 
  -7   3  22     17.48    5.68  0. 1.0000     0.      0.00 
  -6   3  22      3.47    4.89  0. 1.0000     0.      0.00 
  -5   3  22   1015.94   25.12  0. 1.0000     0.      0.00 
  -4   3  22      0.00   13.12  0. 1.0000     0.      0.00 
  -3   3  22     88.28   13.67  0. 1.0000     0.      0.00 
  -2   3  22    259.77   25.60  0. 1.0000     0.      0.00 
  -1   3  22    888.90   12.29  0. 1.0000     0.      0.00 
   0   3  22     15.56    2.86  0. 1.0000     0.      0.00 
   1   3  22     10.40    2.61  0. 1.0000     0.      0.00 
   2   3  22    108.29    4.24  0. 1.0000     0.      0.00 
   3   3  22   1047.96   12.94  0. 1.0000     0.      0.00 
   4   3  22     36.40    4.07  0. 1.0000     0.      0.00 
   5   3  22     84.83    7.33  0. 1.0000     0.      0.00 
   6   3  22      0.00   20.66  0. 1.0000     0.      0.00 
 -11   4  22     12.31    7.01  0. 1.0000     0.      0.00 
 -10   4  22     82.27    7.88  0. 1.0000     0.      0.00 
  -9   4  22    347.79   13.26  0. 1.0000     0.      0.00 
  -8   4  22    365.25   16.15  0. 1.0000     0.      0.00 
  -7   4  22    119.14   44.61  0. 1.0000     0.      0.00 
  -6   4  22     95.17   40.54  0. 1.0000     0.      0.00 
  -5   4  22    509.94   22.95  0. 1.0000     0.      0.00 
  -4   4  22     37.29    5.47  0. 1.0000     0.      0.00 
  -3   4  22    100.24    3.79  0. 1.0000     0.      0.00 
  -2   4  22    225.76    6.60  0. 1.0000     0.      0.00 
  -1   4  22    288.91    4.16  0. 1.0000     0.      0.00 
   0   4  22    437.28    5.53  0. 1.0000     0.      0.00 
   1   4  22     39.44    3.13  0. 1.0000     0.      0.00 
   2   4  22    346.16    8.00  0. 1.0000     0.      0.00 
   7   4  22      0.00   15.23  0. 1.0000     0.      0.00 
   8   4  22     18.46    8.77  0. 1.0000     0.      0.00 
 -10   5  22     70.83   41.62  0. 1.0000     0.      0.00 
  -9   5  22      8.53   31.62  0. 1.0000     0.      0.00 
  -8   5  22     76.50   10.52  0. 1.0000     0.      0.00 
  -7   5  22    265.05   10.24  0. 1.0000     0.      0.00 
  -6   5  22    201.09    7.83  0. 1.0000     0.      0.00 
  -5   5  22     34.65    4.01  0. 1.0000     0.      0.00 
  -4   5  22      6.61    2.79  0. 1.0000     0.      0.00 
  -3   5  22      6.26    3.06  0. 1.0000     0.      0.00 
  -2   5  22   1483.82   16.63  0. 1.0000     0.      0.00 
  -1   5  22      0.00    7.29  0. 1.0000     0.      0.00 
   4   5  22     20.02    8.63  0. 1.0000     0.      0.00 
   5   5  22     11.86    6.47  0. 1.0000     0.      0.00 
   6   5  22    489.95   11.21  0. 1.0000     0.      0.00 
   7   5  22     22.30    6.60  0. 1.0000     0.      0.00 
   8   5  22     11.41    8.90  0. 1.0000     0.      0.00 
 -10   6  22    189.05   10.81  0. 1.0000     0.      0.00 
  -9   6  22     12.82    6.95  0. 1.0000     0.      0.00 
  -8   6  22     16.79    6.25  0. 1.0000     0.      0.00 
  -7   6  22    180.79    5.71  0. 1.0000     0.      0.00 
  -6   6  22    747.37   12.59  0. 1.0000     0.      0.00 
  -5   6  22    275.55    8.66  0. 1.0000     0.      0.00 
  -4   6  22     33.79    7.33  0. 1.0000     0.      0.00 
  -3   6  22      9.68   10.55  0. 1.0000     0.      0.00 
  -2   6  22    655.74   43.74  0. 1.0000     0.      0.00 
   0   6  22     35.53   19.25  0. 1.0000     0.      0.00 
   1   6  22      5.04   11.39  0. 1.0000     0.      0.00 
   2   6  22    325.68    9.01  0. 1.0000     0.      0.00 
   3   6  22    108.57    6.16  0. 1.0000     0.      0.00 
   4   6  22     89.73    5.39  0. 1.0000     0.      0.00 
   5   6  22     88.05    7.01  0. 1.0000     0.      0.00 
   6   6  22    138.38    9.91  0. 1.0000     0.      0.00 
   7   6  22     22.28   17.16  0. 1.0000     0.      0.00 
 -10   7  22    236.83    8.01  0. 1.0000     0.      0.00 
  -9   7  22     52.81    6.85  0. 1.0000     0.      0.00 
  -8   7  22     21.45    6.93  0. 1.0000     0.      0.00 
  -7   7  22     14.00   13.33  0. 1.0000     0.      0.00 
  -6   7  22    512.49   28.32  0. 1.0000     0.      0.00 
  -5   7  22    597.91   75.53  0. 1.0000     0.      0.00 
  -4   7  22    126.57   36.64  0. 1.0000     0.      0.00 
  -3   7  22     58.48   29.38  0. 1.0000     0.      0.00 
  -2   7  22     82.15   10.71  0. 1.0000     0.      0.00 
  -1   7  22      0.00    5.84  0. 1.0000     0.      0.00 
   0   7  22    144.20    5.39  0. 1.0000     0.      0.00 
   1   7  22    806.04   10.69  0. 1.0000     0.      0.00 
   2   7  22     24.40    5.23  0. 1.0000     0.      0.00 
   3   7  22     49.49    7.32  0. 1.0000     0.      0.00 
   4   7  22     42.10   15.22  0. 1.0000     0.      0.00 
  -9   8  22    310.23   27.14  0. 1.0000     0.      0.00 
  -8   8  22      1.71   35.24  0. 1.0000     0.      0.00 
  -7   8  22    204.89   44.20  0. 1.0000     0.      0.00 
  -6   8  22     22.47   23.77  0. 1.0000     0.      0.00 
  -5   8  22     14.97    9.74  0. 1.0000     0.      0.00 
  -4   8  22    168.70    7.52  0. 1.0000     0.      0.00 
  -3   8  22    516.46    8.76  0. 1.0000     0.      0.00 
  -2   8  22     44.78    4.78  0. 1.0000     0.      0.00 
  -1   8  22     50.07    5.25  0. 1.0000     0.      0.00 
   0   8  22      7.60    6.78  0. 1.0000     0.      0.00 
   1   8  22    806.37   32.41  0. 1.0000     0.      0.00 
   5   8  22    273.01   55.17  0. 1.0000     0.      0.00 
  -8   9  22     37.01   10.45  0. 1.0000     0.      0.00 
  -7   9  22    132.39    9.36  0. 1.0000     0.      0.00 
  -6   9  22      8.15    6.53  0. 1.0000     0.      0.00 
  -5   9  22     11.88    4.32  0. 1.0000     0.      0.00 
  -4   9  22      6.73    5.51  0. 1.0000     0.      0.00 
  -3   9  22    788.17   19.41  0. 1.0000     0.      0.00 
  -2   9  22    222.52   17.57  0. 1.0000     0.      0.00 
   2   9  22      0.00   31.58  0. 1.0000     0.      0.00 
   3   9  22     34.35   16.69  0. 1.0000     0.      0.00 
   4   9  22    182.43   16.91  0. 1.0000     0.      0.00 
  -7  10  22    114.21    8.18  0. 1.0000     0.      0.00 
  -6  10  22    196.72   14.28  0. 1.0000     0.      0.00 
  -5  10  22     23.85   16.37  0. 1.0000     0.      0.00 
  -4  10  22    103.29   25.00  0. 1.0000     0.      0.00 
  -3  10  22    216.40   78.68  0. 1.0000     0.      0.00 
  -2  10  22      0.00   59.69  0. 1.0000     0.      0.00 
  -1  10  22     34.72   19.58  0. 1.0000     0.      0.00 
   0  10  22     76.97   14.99  0. 1.0000     0.      0.00 
   1  10  22      0.00   10.08  0. 1.0000     0.      0.00 
   2  10  22      9.26    8.44  0. 1.0000     0.      0.00 
  -4  11  22     69.73   20.17  0. 1.0000     0.      0.00 
  -3  11  22      0.00   18.17  0. 1.0000     0.      0.00 
  -2  11  22     18.99   15.50  0. 1.0000     0.      0.00 
  -1  11  22     20.56    6.79  0. 1.0000     0.      0.00 
  -1 -11  23     16.42    7.48  0. 1.0000     0.      0.00 
   0 -11  23      8.43    6.58  0. 1.0000     0.      0.00 
   1 -11  23     16.24    6.31  0. 1.0000     0.      0.00 
   2 -11  23    186.82    8.06  0. 1.0000     0.      0.00 
   3 -11  23    177.48    9.68  0. 1.0000     0.      0.00 
   4 -11  23     53.60   14.26  0. 1.0000     0.      0.00 
   5 -11  23      0.00   21.16  0. 1.0000     0.      0.00 
   6 -11  23      0.00   25.82  0. 1.0000     0.      0.00 
  -3 -10  23     46.95    8.68  0. 1.0000     0.      0.00 
  -2 -10  23     43.67    7.81  0. 1.0000     0.      0.00 
  -1 -10  23      0.00    7.67  0. 1.0000     0.      0.00 
   0 -10  23     12.56    7.79  0. 1.0000     0.      0.00 
   1 -10  23     13.23   12.31  0. 1.0000     0.      0.00 
   2 -10  23    344.12   27.39  0. 1.0000     0.      0.00 
   3 -10  23    526.16   46.10  0. 1.0000     0.      0.00 
   4 -10  23      9.45   17.31  0. 1.0000     0.      0.00 
   5 -10  23      8.85    7.45  0. 1.0000     0.      0.00 
   6 -10  23      2.25    7.22  0. 1.0000     0.      0.00 
   7 -10  23      3.52    6.28  0. 1.0000     0.      0.00 
   8 -10  23    124.79    6.68  0. 1.0000     0.      0.00 
  -4  -9  23     17.26    9.36  0. 1.0000     0.      0.00 
  -3  -9  23     47.86    9.08  0. 1.0000     0.      0.00 
  -2  -9  23    368.79   14.81  0. 1.0000     0.      0.00 
  -1  -9  23    116.80   31.22  0. 1.0000     0.      0.00 
   0  -9  23     16.74   38.99  0. 1.0000     0.      0.00 
   1  -9  23     22.84   11.37  0. 1.0000     0.      0.00 
   2  -9  23     92.82    7.75  0. 1.0000     0.      0.00 
   3  -9  23     16.63    6.85  0. 1.0000     0.      0.00 
   4  -9  23     85.28    5.51  0. 1.0000     0.      0.00 
   5  -9  23     34.31    4.89  0. 1.0000     0.      0.00 
   6  -9  23     32.56    6.69  0. 1.0000     0.      0.00 
   7  -9  23     35.92    7.22  0. 1.0000     0.      0.00 
   8  -9  23     44.71    9.16  0. 1.0000     0.      0.00 
   9  -9  23      8.18   11.68  0. 1.0000     0.      0.00 
  -6  -8  23     33.69   11.24  0. 1.0000     0.      0.00 
  -5  -8  23     12.03   15.46  0. 1.0000     0.      0.00 
  -4  -8  23     68.40   23.07  0. 1.0000     0.      0.00 
  -3  -8  23      8.43   22.59  0. 1.0000     0.      0.00 
  -2  -8  23    551.86   19.69  0. 1.0000     0.      0.00 
  -1  -8  23     11.18    7.67  0. 1.0000     0.      0.00 
   0  -8  23     79.15    6.77  0. 1.0000     0.      0.00 
   1  -8  23     13.48    4.97  0. 1.0000     0.      0.00 
   2  -8  23      0.00    4.56  0. 1.0000     0.      0.00 
   3  -8  23     95.19    5.56  0. 1.0000     0.      0.00 
   4  -8  23    110.58    6.87  0. 1.0000     0.      0.00 
   5  -8  23     63.23    7.46  0. 1.0000     0.      0.00 
   6  -8  23    458.40   16.49  0. 1.0000     0.      0.00 
   7  -8  23    132.58   27.12  0. 1.0000     0.      0.00 
   8  -8  23      0.00   24.97  0. 1.0000     0.      0.00 
   9  -8  23    118.41   12.66  0. 1.0000     0.      0.00 
  -7  -7  23    173.95   19.23  0. 1.0000     0.      0.00 
  -6  -7  23     31.75   32.29  0. 1.0000     0.      0.00 
  -5  -7  23     17.30   31.72  0. 1.0000     0.      0.00 
  -4  -7  23    117.78    9.30  0. 1.0000     0.      0.00 
  -3  -7  23     42.48    6.66  0. 1.0000     0.      0.00 
  -2  -7  23     62.14    5.65  0. 1.0000     0.      0.00 
  -1  -7  23    228.86    6.35  0. 1.0000     0.      0.00 
   0  -7  23      7.51    4.12  0. 1.0000     0.      0.00 
   1  -7  23    208.78    6.27  0. 1.0000     0.      0.00 
   2  -7  23     67.55    5.50  0. 1.0000     0.      0.00 
   3  -7  23     14.36    9.66  0. 1.0000     0.      0.00 
   4  -7  23     75.84   18.80  0. 1.0000     0.      0.00 
   6  -7  23     62.89   12.41  0. 1.0000     0.      0.00 
   7  -7  23     20.68    8.39  0. 1.0000     0.      0.00 
   8  -7  23     37.46    6.83  0. 1.0000     0.      0.00 
   9  -7  23     36.23    6.50  0. 1.0000     0.      0.00 
  10  -7  23     15.33    6.65  0. 1.0000     0.      0.00 
  -7  -6  23      9.75    9.37  0. 1.0000     0.      0.00 
  -6  -6  23     43.71    7.69  0. 1.0000     0.      0.00 
  -5  -6  23    180.26    7.54  0. 1.0000     0.      0.00 
  -4  -6  23     51.85    5.97  0. 1.0000     0.      0.00 
  -3  -6  23      3.23    5.18  0. 1.0000     0.      0.00 
  -2  -6  23     53.76    5.30  0. 1.0000     0.      0.00 
  -1  -6  23     60.30    5.31  0. 1.0000     0.      0.00 
   0  -6  23     25.07    5.45  0. 1.0000     0.      0.00 
   1  -6  23   1236.99   42.10  0. 1.0000     0.      0.00 
   2  -6  23    602.59   28.24  0. 1.0000     0.      0.00 
   3  -6  23     27.48    7.61  0. 1.0000     0.      0.00 
   4  -6  23     25.44    5.33  0. 1.0000     0.      0.00 
   5  -6  23    211.54    7.62  0. 1.0000     0.      0.00 
   6  -6  23    157.29   10.78  0. 1.0000     0.      0.00 
   7  -6  23    159.74    5.80  0. 1.0000     0.      0.00 
   8  -6  23     13.89    5.48  0. 1.0000     0.      0.00 
   9  -6  23     83.05    7.85  0. 1.0000     0.      0.00 
  10  -6  23     15.63   10.62  0. 1.0000     0.      0.00 
  -8  -5  23     76.66    8.41  0. 1.0000     0.      0.00 
  -7  -5  23     15.68    7.01  0. 1.0000     0.      0.00 
  -6  -5  23     13.34    6.63  0. 1.0000     0.      0.00 
  -5  -5  23    116.37    7.49  0. 1.0000     0.      0.00 
  -4  -5  23    270.36    8.37  0. 1.0000     0.      0.00 
  -3  -5  23    252.69    9.14  0. 1.0000     0.      0.00 
  -2  -5  23     47.04   12.17  0. 1.0000     0.      0.00 
  -1  -5  23     11.31   11.33  0. 1.0000     0.      0.00 
   0  -5  23     14.19   10.40  0. 1.0000     0.      0.00 
   1  -5  23    707.75    9.67  0. 1.0000     0.      0.00 
   2  -5  23     80.90    7.32  0. 1.0000     0.      0.00 
   3  -5  23      9.08    3.29  0. 1.0000     0.      0.00 
   4  -5  23     65.28    3.40  0. 1.0000     0.      0.00 
   5  -5  23     43.78    4.33  0. 1.0000     0.      0.00 
   6  -5  23     48.67    6.37  0. 1.0000     0.      0.00 
   7  -5  23    269.16   11.84  0. 1.0000     0.      0.00 
   8  -5  23     47.22   15.76  0. 1.0000     0.      0.00 
   9  -5  23    115.86   41.52  0. 1.0000     0.      0.00 
  10  -5  23     12.68   32.51  0. 1.0000     0.      0.00 
  -9  -4  23    121.70    9.14  0. 1.0000     0.      0.00 
  -8  -4  23      4.77    8.82  0. 1.0000     0.      0.00 
  -7  -4  23     15.03    8.14  0. 1.0000     0.      0.00 
  -6  -4  23      0.00   12.02  0. 1.0000     0.      0.00 
  -5  -4  23      5.02   18.76  0. 1.0000     0.      0.00 
  -4  -4  23    306.60   47.08  0. 1.0000     0.      0.00 
  -3  -4  23    582.33   32.49  0. 1.0000     0.      0.00 
  -2  -4  23     15.55    4.72  0. 1.0000     0.      0.00 
  -1  -4  23     21.13    3.83  0. 1.0000     0.      0.00 
   0  -4  23      5.27    3.72  0. 1.0000     0.      0.00 
   1  -4  23      0.00    3.02  0. 1.0000     0.      0.00 
   2  -4  23    944.42   12.39  0. 1.0000     0.      0.00 
   3  -4  23     11.28    3.65  0. 1.0000     0.      0.00 
   4  -4  23    196.29    5.39  0. 1.0000     0.      0.00 
   5  -4  23    391.36   14.63  0. 1.0000     0.      0.00 
   6  -4  23    148.70   40.16  0. 1.0000     0.      0.00 
   7  -4  23      0.00   31.25  0. 1.0000     0.      0.00 
   8  -4  23    625.62   24.34  0. 1.0000     0.      0.00 
   9  -4  23      2.09   10.25  0. 1.0000     0.      0.00 
  10  -4  23     23.24   10.78  0. 1.0000     0.      0.00 
  -9  -3  23      0.00   14.66  0. 1.0000     0.      0.00 
  -8  -3  23    203.23   21.37  0. 1.0000     0.      0.00 
  -7  -3  23     10.52   15.54  0. 1.0000     0.      0.00 
  -6  -3  23     10.12    6.66  0. 1.0000     0.      0.00 
  -5  -3  23    110.16    5.60  0. 1.0000     0.      0.00 
  -4  -3  23     24.96    3.85  0. 1.0000     0.      0.00 
  -3  -3  23     87.70    5.98  0. 1.0000     0.      0.00 
  -2  -3  23    541.46    7.85  0. 1.0000     0.      0.00 
  -1  -3  23     42.09    3.19  0. 1.0000     0.      0.00 
   0  -3  23     38.93    3.27  0. 1.0000     0.      0.00 
   1  -3  23      0.00    5.08  0. 1.0000     0.      0.00 
   2  -3  23    114.61    8.23  0. 1.0000     0.      0.00 
   3  -3  23     29.42   11.48  0. 1.0000     0.      0.00 
   4  -3  23    918.42   28.28  0. 1.0000     0.      0.00 
   5  -3  23     19.22    5.94  0. 1.0000     0.      0.00 
   6  -3  23     55.95    6.55  0. 1.0000     0.      0.00 
   7  -3  23    120.49    6.99  0. 1.0000     0.      0.00 
   8  -3  23    367.72    8.93  0. 1.0000     0.      0.00 
   9  -3  23     28.59    4.46  0. 1.0000     0.      0.00 
  10  -3  23    103.31    7.40  0. 1.0000     0.      0.00 
 -10  -2  23      0.00   13.73  0. 1.0000     0.      0.00 
  -9  -2  23     19.61    9.52  0. 1.0000     0.      0.00 
  -8  -2  23    144.12    8.27  0. 1.0000     0.      0.00 
  -7  -2  23     22.46    6.68  0. 1.0000     0.      0.00 
  -6  -2  23    257.72    7.06  0. 1.0000     0.      0.00 
  -5  -2  23    148.45    4.00  0. 1.0000     0.      0.00 
  -4  -2  23     14.36    3.26  0. 1.0000     0.      0.00 
  -3  -2  23    576.27   11.59  0. 1.0000     0.      0.00 
  -2  -2  23    243.74    5.53  0. 1.0000     0.      0.00 
  -1  -2  23    323.58   12.41  0. 1.0000     0.      0.00 
   2  -2  23     19.06    6.73  0. 1.0000     0.      0.00 
   3  -2  23    138.42    5.02  0. 1.0000     0.      0.00 
   4  -2  23    352.91    9.19  0. 1.0000     0.      0.00 
   5  -2  23    561.36    7.81  0. 1.0000     0.      0.00 
   6  -2  23      8.45    3.10  0. 1.0000     0.      0.00 
   7  -2  23     12.19    5.39  0. 1.0000     0.      0.00 
   8  -2  23    136.77    9.36  0. 1.0000     0.      0.00 
   9  -2  23     14.34   10.56  0. 1.0000     0.      0.00 
  10  -2  23     53.39   18.36  0. 1.0000     0.      0.00 
 -10  -1  23     28.53    8.24  0. 1.0000     0.      0.00 
  -9  -1  23     77.14    6.74  0. 1.0000     0.      0.00 
  -8  -1  23     20.31    5.26  0. 1.0000     0.      0.00 
  -7  -1  23    273.83    8.59  0. 1.0000     0.      0.00 
  -6  -1  23     88.79    5.16  0. 1.0000     0.      0.00 
  -5  -1  23    198.95    5.24  0. 1.0000     0.      0.00 
  -4  -1  23      7.52    6.09  0. 1.0000     0.      0.00 
  -3  -1  23     17.39   17.84  0. 1.0000     0.      0.00 
  -1  -1  23    352.50   18.31  0. 1.0000     0.      0.00 
   0  -1  23    637.97   10.01  0. 1.0000     0.      0.00 
   1  -1  23     64.56    3.14  0. 1.0000     0.      0.00 
   2  -1  23    118.11    3.33  0. 1.0000     0.      0.00 
   3  -1  23    176.03    3.88  0. 1.0000     0.      0.00 
   4  -1  23      6.25    3.19  0. 1.0000     0.      0.00 
   5  -1  23    518.01    9.08  0. 1.0000     0.      0.00 
   6  -1  23    138.97    7.12  0. 1.0000     0.      0.00 
   7  -1  23    107.52   16.90  0. 1.0000     0.      0.00 
   9  -1  23     20.02   44.13  0. 1.0000     0.      0.00 
  10  -1  23     40.75   26.07  0. 1.0000     0.      0.00 
 -10   0  23    111.85    6.99  0. 1.0000     0.      0.00 
  -9   0  23     32.83    7.10  0. 1.0000     0.      0.00 
  -8   0  23     14.20    7.73  0. 1.0000     0.      0.00 
  -7   0  23    162.34   12.32  0. 1.0000     0.      0.00 
  -6   0  23     34.08   15.05  0. 1.0000     0.      0.00 
  -5   0  23    710.63   23.94  0. 1.0000     0.      0.00 
  -4   0  23    231.15    8.39  0. 1.0000     0.      0.00 
  -3   0  23     22.03    3.63  0. 1.0000     0.      0.00 
  -2   0  23    108.80    3.54  0. 1.0000     0.      0.00 
  -1   0  23    184.42    5.42  0. 1.0000     0.      0.00 
   0   0  23    428.81    6.39  0. 1.0000     0.      0.00 
   1   0  23    724.10    8.67  0. 1.0000     0.      0.00 
   2   0  23     21.31    3.19  0. 1.0000     0.      0.00 
   3   0  23    138.16    5.21  0. 1.0000     0.      0.00 
   4   0  23    117.30   15.91  0. 1.0000     0.      0.00 
   7   0  23    473.21   25.42  0. 1.0000     0.      0.00 
   8   0  23     50.43   10.45  0. 1.0000     0.      0.00 
   9   0  23     11.64    9.97  0. 1.0000     0.      0.00 
  10   0  23     18.47    7.30  0. 1.0000     0.      0.00 
 -10   1  23     44.99   14.73  0. 1.0000     0.      0.00 
  -9   1  23     15.31   24.32  0. 1.0000     0.      0.00 
  -8   1  23     87.82   39.78  0. 1.0000     0.      0.00 
  -7   1  23     23.72   11.23  0. 1.0000     0.      0.00 
  -6   1  23     33.27    4.70  0. 1.0000     0.      0.00 
  -5   1  23    407.07    7.96  0. 1.0000     0.      0.00 
  -4   1  23     48.96    3.36  0. 1.0000     0.      0.00 
  -3   1  23    107.95    3.58  0. 1.0000     0.      0.00 
  -2   1  23     10.31    2.66  0. 1.0000     0.      0.00 
  -1   1  23     20.14    2.92  0. 1.0000     0.      0.00 
   0   1  23    552.43   10.00  0. 1.0000     0.      0.00 
   5   1  23     35.54    6.41  0. 1.0000     0.      0.00 
   6   1  23    604.15   12.76  0. 1.0000     0.      0.00 
   7   1  23    178.44    6.45  0. 1.0000     0.      0.00 
   8   1  23    128.01    5.97  0. 1.0000     0.      0.00 
   9   1  23     39.67    8.40  0. 1.0000     0.      0.00 
  10   1  23     19.96   40.87  0. 1.0000     0.      0.00 
 -10   2  23     72.07   11.62  0. 1.0000     0.      0.00 
  -9   2  23    124.21    8.61  0. 1.0000     0.      0.00 
  -8   2  23     52.76    6.38  0. 1.0000     0.      0.00 
  -7   2  23     82.10    6.39  0. 1.0000     0.      0.00 
  -6   2  23    154.88    4.22  0. 1.0000     0.      0.00 
  -5   2  23     32.90    4.23  0. 1.0000     0.      0.00 
  -4   2  23   1247.23   15.60  0. 1.0000     0.      0.00 
  -3   2  23     31.41    4.28  0. 1.0000     0.      0.00 
  -2   2  23    257.72   18.94  0. 1.0000     0.      0.00 
   2   2  23    622.65   10.23  0. 1.0000     0.      0.00 
   3   2  23      8.09    3.48  0. 1.0000     0.      0.00 
   4   2  23    249.89    5.46  0. 1.0000     0.      0.00 
   5   2  23     19.58    3.50  0. 1.0000     0.      0.00 
   6   2  23    180.76    6.66  0. 1.0000     0.      0.00 
   7   2  23      8.23    8.12  0. 1.0000     0.      0.00 
   8   2  23     38.35   13.01  0. 1.0000     0.      0.00 
   9   2  23     25.91   21.53  0. 1.0000     0.      0.00 
 -10   3  23     12.10    7.16  0. 1.0000     0.      0.00 
  -9   3  23     17.44    5.49  0. 1.0000     0.      0.00 
  -8   3  23    397.64    8.27  0. 1.0000     0.      0.00 
  -7   3  23     23.54    6.16  0. 1.0000     0.      0.00 
  -6   3  23      9.16    5.71  0. 1.0000     0.      0.00 
  -5   3  23     86.58   11.93  0. 1.0000     0.      0.00 
  -4   3  23    255.05   18.74  0. 1.0000     0.      0.00 
  -3   3  23     38.76   16.82  0. 1.0000     0.      0.00 
  -2   3  23    729.72   39.78  0. 1.0000     0.      0.00 
  -1   3  23     59.01    4.86  0. 1.0000     0.      0.00 
   0   3  23     18.62    3.27  0. 1.0000     0.      0.00 
   1   3  23     74.89    3.17  0. 1.0000     0.      0.00 
   2   3  23    448.01    6.59  0. 1.0000     0.      0.00 
   3   3  23    384.99    6.65  0. 1.0000     0.      0.00 
   4   3  23    279.64    6.33  0. 1.0000     0.      0.00 
   5   3  23     40.48   10.96  0. 1.0000     0.      0.00 
   6   3  23     37.45   22.69  0. 1.0000     0.      0.00 
 -10   4  23     18.69    8.02  0. 1.0000     0.      0.00 
  -9   4  23     79.23    9.54  0. 1.0000     0.      0.00 
  -8   4  23    337.40   18.73  0. 1.0000     0.      0.00 
  -7   4  23    134.57   24.16  0. 1.0000     0.      0.00 
  -5   4  23     48.21   16.47  0. 1.0000     0.      0.00 
  -4   4  23     16.50    5.35  0. 1.0000     0.      0.00 
  -3   4  23     27.35    3.98  0. 1.0000     0.      0.00 
  -2   4  23    266.75    4.86  0. 1.0000     0.      0.00 
  -1   4  23    947.67   10.19  0. 1.0000     0.      0.00 
   0   4  23     33.52    2.89  0. 1.0000     0.      0.00 
   1   4  23     10.88    3.21  0. 1.0000     0.      0.00 
   2   4  23     97.11    6.97  0. 1.0000     0.      0.00 
   7   4  23     33.22   19.22  0. 1.0000     0.      0.00 
   8   4  23      3.32    9.15  0. 1.0000     0.      0.00 
 -10   5  23      0.00   37.92  0. 1.0000     0.      0.00 
  -9   5  23     26.52   26.38  0. 1.0000     0.      0.00 
  -8   5  23      0.00   10.50  0. 1.0000     0.      0.00 
  -7   5  23     36.73    6.85  0. 1.0000     0.      0.00 
  -6   5  23    227.81    8.41  0. 1.0000     0.      0.00 
  -5   5  23     59.45    5.00  0. 1.0000     0.      0.00 
  -4   5  23      0.00    3.06  0. 1.0000     0.      0.00 
  -3   5  23      8.83    3.29  0. 1.0000     0.      0.00 
  -2   5  23     13.62    3.87  0. 1.0000     0.      0.00 
  -1   5  23   1394.49   28.13  0. 1.0000     0.      0.00 
   4   5  23     11.84   11.25  0. 1.0000     0.      0.00 
   5   5  23    840.91   16.99  0. 1.0000     0.      0.00 
   6   5  23     16.56    6.39  0. 1.0000     0.      0.00 
   7   5  23     38.30    6.91  0. 1.0000     0.      0.00 
 -10   6  23     21.30   10.47  0. 1.0000     0.      0.00 
  -9   6  23     22.55    7.23  0. 1.0000     0.      0.00 
  -8   6  23     56.68    6.22  0. 1.0000     0.      0.00 
  -7   6  23      9.70    4.21  0. 1.0000     0.      0.00 
  -6   6  23     64.76    5.24  0. 1.0000     0.      0.00 
  -5   6  23    781.60   17.89  0. 1.0000     0.      0.00 
  -4   6  23     14.34   10.39  0. 1.0000     0.      0.00 
  -3   6  23     19.51   19.17  0. 1.0000     0.      0.00 
  -2   6  23      0.44   45.68  0. 1.0000     0.      0.00 
   1   6  23    450.11   22.10  0. 1.0000     0.      0.00 
   2   6  23    106.99    7.74  0. 1.0000     0.      0.00 
   3   6  23     12.76    5.27  0. 1.0000     0.      0.00 
   4   6  23     58.98    6.22  0. 1.0000     0.      0.00 
   5   6  23    239.59    8.17  0. 1.0000     0.      0.00 
   6   6  23     19.08   10.18  0. 1.0000     0.      0.00 
  -9   7  23     54.97    7.22  0. 1.0000     0.      0.00 
  -8   7  23     23.52    7.65  0. 1.0000     0.      0.00 
  -7   7  23     30.22   13.47  0. 1.0000     0.      0.00 
  -6   7  23    366.45   24.72  0. 1.0000     0.      0.00 
  -5   7  23    369.49   47.09  0. 1.0000     0.      0.00 
  -4   7  23     39.47   25.75  0. 1.0000     0.      0.00 
  -3   7  23     97.36   24.19  0. 1.0000     0.      0.00 
  -2   7  23      0.00   11.02  0. 1.0000     0.      0.00 
  -1   7  23     12.94    7.47  0. 1.0000     0.      0.00 
   0   7  23    128.49    4.92  0. 1.0000     0.      0.00 
   1   7  23    133.46    4.91  0. 1.0000     0.      0.00 
   2   7  23    550.50   10.41  0. 1.0000     0.      0.00 
   3   7  23     27.40    7.06  0. 1.0000     0.      0.00 
   4   7  23      6.75   21.20  0. 1.0000     0.      0.00 
  -9   8  23     33.95   20.63  0. 1.0000     0.      0.00 
  -8   8  23     34.52   40.35  0. 1.0000     0.      0.00 
  -7   8  23      0.00   42.15  0. 1.0000     0.      0.00 
  -6   8  23      0.00   22.59  0. 1.0000     0.      0.00 
  -5   8  23      8.11   11.47  0. 1.0000     0.      0.00 
  -4   8  23     44.12    7.84  0. 1.0000     0.      0.00 
  -3   8  23      0.00    5.16  0. 1.0000     0.      0.00 
  -2   8  23    275.54    6.12  0. 1.0000     0.      0.00 
  -1   8  23      0.00    5.74  0. 1.0000     0.      0.00 
   0   8  23     90.58    7.39  0. 1.0000     0.      0.00 
   1   8  23      0.00   19.69  0. 1.0000     0.      0.00 
  -8   9  23     74.37    5.43  0. 1.0000     0.      0.00 
  -7   9  23      0.00    9.50  0. 1.0000     0.      0.00 
  -6   9  23      0.00    7.13  0. 1.0000     0.      0.00 
  -5   9  23      3.31    4.64  0. 1.0000     0.      0.00 
  -4   9  23     79.66    6.42  0. 1.0000     0.      0.00 
  -3   9  23    310.55   15.60  0. 1.0000     0.      0.00 
  -2   9  23    503.95   21.52  0. 1.0000     0.      0.00 
  -1   9  23      0.00   51.49  0. 1.0000     0.      0.00 
   2   9  23     44.04   48.36  0. 1.0000     0.      0.00 
   3   9  23     14.94   16.66  0. 1.0000     0.      0.00 
  -6  10  23     35.50   13.68  0. 1.0000     0.      0.00 
  -5  10  23     17.01   17.34  0. 1.0000     0.      0.00 
  -4  10  23     27.50   30.34  0. 1.0000     0.      0.00 
  -3  10  23    281.27   73.51  0. 1.0000     0.      0.00 
  -1  10  23      0.00   34.55  0. 1.0000     0.      0.00 
   0  10  23      0.00   18.18  0. 1.0000     0.      0.00 
   1  10  23     68.67   11.95  0. 1.0000     0.      0.00 
   0 -11  24      9.82    6.77  0. 1.0000     0.      0.00 
   1 -11  24     13.30    7.73  0. 1.0000     0.      0.00 
   2 -11  24      0.00    7.93  0. 1.0000     0.      0.00 
   3 -11  24      0.00    9.16  0. 1.0000     0.      0.00 
   4 -11  24     12.20   12.59  0. 1.0000     0.      0.00 
   5 -11  24     16.12   33.92  0. 1.0000     0.      0.00 
  -2 -10  24     14.62    8.24  0. 1.0000     0.      0.00 
  -1 -10  24     16.88    8.16  0. 1.0000     0.      0.00 
   0 -10  24     11.85    8.06  0. 1.0000     0.      0.00 
   1 -10  24     12.24   13.62  0. 1.0000     0.      0.00 
   2 -10  24      0.00   22.80  0. 1.0000     0.      0.00 
   3 -10  24     28.79   36.35  0. 1.0000     0.      0.00 
   4 -10  24     50.85   18.42  0. 1.0000     0.      0.00 
   5 -10  24      0.00    8.42  0. 1.0000     0.      0.00 
   6 -10  24     21.97    7.85  0. 1.0000     0.      0.00 
   7 -10  24      9.57    6.89  0. 1.0000     0.      0.00 
  -4  -9  24     16.69    9.96  0. 1.0000     0.      0.00 
  -3  -9  24     25.27    9.42  0. 1.0000     0.      0.00 
  -2  -9  24     53.69   13.31  0. 1.0000     0.      0.00 
  -1  -9  24     42.06   17.35  0. 1.0000     0.      0.00 
   0  -9  24    124.61   52.66  0. 1.0000     0.      0.00 
   1  -9  24     31.58   16.64  0. 1.0000     0.      0.00 
   2  -9  24      0.00    7.90  0. 1.0000     0.      0.00 
   3  -9  24      0.00    7.21  0. 1.0000     0.      0.00 
   4  -9  24      9.10    5.12  0. 1.0000     0.      0.00 
   5  -9  24     10.83    4.61  0. 1.0000     0.      0.00 
   6  -9  24     13.92    6.74  0. 1.0000     0.      0.00 
   7  -9  24     38.33    7.60  0. 1.0000     0.      0.00 
   8  -9  24     14.19    9.81  0. 1.0000     0.      0.00 
  -5  -8  24     49.57   15.82  0. 1.0000     0.      0.00 
  -4  -8  24    194.44   23.85  0. 1.0000     0.      0.00 
  -3  -8  24      0.00   21.05  0. 1.0000     0.      0.00 
  -2  -8  24     38.56   17.16  0. 1.0000     0.      0.00 
  -1  -8  24      0.00    9.10  0. 1.0000     0.      0.00 
   0  -8  24     35.48    6.61  0. 1.0000     0.      0.00 
   1  -8  24      4.00    5.11  0. 1.0000     0.      0.00 
   2  -8  24      3.10    4.14  0. 1.0000     0.      0.00 
   3  -8  24      0.00    6.16  0. 1.0000     0.      0.00 
   4  -8  24     23.13    6.76  0. 1.0000     0.      0.00 
   5  -8  24     11.99    6.72  0. 1.0000     0.      0.00 
   6  -8  24     29.58   12.91  0. 1.0000     0.      0.00 
   7  -8  24     20.31   31.49  0. 1.0000     0.      0.00 
   8  -8  24     38.60   32.09  0. 1.0000     0.      0.00 
   9  -8  24      7.76   13.69  0. 1.0000     0.      0.00 
  -6  -7  24     31.68   24.42  0. 1.0000     0.      0.00 
  -5  -7  24      4.59   30.17  0. 1.0000     0.      0.00 
  -4  -7  24     69.68    8.68  0. 1.0000     0.      0.00 
  -3  -7  24     15.10    7.30  0. 1.0000     0.      0.00 
  -2  -7  24     22.97    6.22  0. 1.0000     0.      0.00 
  -1  -7  24     62.52    8.02  0. 1.0000     0.      0.00 
   0  -7  24     89.52    6.41  0. 1.0000     0.      0.00 
   1  -7  24     92.39    5.68  0. 1.0000     0.      0.00 
   2  -7  24    162.88    7.25  0. 1.0000     0.      0.00 
   3  -7  24     33.47   11.94  0. 1.0000     0.      0.00 
   4  -7  24      0.00   37.20  0. 1.0000     0.      0.00 
   5  -7  24      0.00   35.29  0. 1.0000     0.      0.00 
   6  -7  24      7.67   12.08  0. 1.0000     0.      0.00 
   7  -7  24      0.75    9.25  0. 1.0000     0.      0.00 
   8  -7  24      4.28    7.11  0. 1.0000     0.      0.00 
   9  -7  24     20.83    6.68  0. 1.0000     0.      0.00 
  -7  -6  24     17.22    9.91  0. 1.0000     0.      0.00 
  -6  -6  24      0.00    9.27  0. 1.0000     0.      0.00 
  -5  -6  24     55.62    7.49  0. 1.0000     0.      0.00 
  -4  -6  24     22.51    6.23  0. 1.0000     0.      0.00 
  -3  -6  24    129.85    6.60  0. 1.0000     0.      0.00 
  -2  -6  24    190.16    7.95  0. 1.0000     0.      0.00 
  -1  -6  24     73.27    5.72  0. 1.0000     0.      0.00 
   0  -6  24     73.71    7.81  0. 1.0000     0.      0.00 
   1  -6  24     43.54   14.91  0. 1.0000     0.      0.00 
   2  -6  24     55.59   15.41  0. 1.0000     0.      0.00 
   3  -6  24    142.88   11.31  0. 1.0000     0.      0.00 
   4  -6  24      3.05    8.14  0. 1.0000     0.      0.00 
   5  -6  24     52.30    8.80  0. 1.0000     0.      0.00 
   6  -6  24     60.89    6.09  0. 1.0000     0.      0.00 
   7  -6  24      7.69    4.08  0. 1.0000     0.      0.00 
   8  -6  24      9.12    6.05  0. 1.0000     0.      0.00 
   9  -6  24     40.58    8.16  0. 1.0000     0.      0.00 
  10  -6  24      6.88   11.27  0. 1.0000     0.      0.00 
  -8  -5  24     15.57    8.64  0. 1.0000     0.      0.00 
  -7  -5  24     43.64    7.26  0. 1.0000     0.      0.00 
  -6  -5  24     25.00    7.60  0. 1.0000     0.      0.00 
  -5  -5  24     11.72    6.70  0. 1.0000     0.      0.00 
  -4  -5  24     11.93    6.97  0. 1.0000     0.      0.00 
  -3  -5  24    102.01    9.91  0. 1.0000     0.      0.00 
  -2  -5  24    154.88   12.19  0. 1.0000     0.      0.00 
  -1  -5  24    286.42   30.00  0. 1.0000     0.      0.00 
   0  -5  24      3.90   12.06  0. 1.0000     0.      0.00 
   1  -5  24     68.62    7.70  0. 1.0000     0.      0.00 
   2  -5  24    156.10    4.83  0. 1.0000     0.      0.00 
   3  -5  24      7.61    3.57  0. 1.0000     0.      0.00 
   4  -5  24     94.53    3.96  0. 1.0000     0.      0.00 
   5  -5  24     18.17    5.15  0. 1.0000     0.      0.00 
   6  -5  24     35.28    7.19  0. 1.0000     0.      0.00 
   7  -5  24     88.12    8.33  0. 1.0000     0.      0.00 
   8  -5  24     74.73   17.60  0. 1.0000     0.      0.00 
   9  -5  24      0.00   28.52  0. 1.0000     0.      0.00 
  10  -5  24     13.54   21.94  0. 1.0000     0.      0.00 
  -8  -4  24     20.81    9.46  0. 1.0000     0.      0.00 
  -7  -4  24     32.45    8.60  0. 1.0000     0.      0.00 
  -6  -4  24     39.16   13.17  0. 1.0000     0.      0.00 
  -5  -4  24     62.18   16.69  0. 1.0000     0.      0.00 
  -4  -4  24     17.34   13.80  0. 1.0000     0.      0.00 
  -3  -4  24     42.68    8.94  0. 1.0000     0.      0.00 
  -2  -4  24    186.82    5.72  0. 1.0000     0.      0.00 
  -1  -4  24     32.93    4.19  0. 1.0000     0.      0.00 
   0  -4  24    170.81    4.26  0. 1.0000     0.      0.00 
   1  -4  24      0.00    4.70  0. 1.0000     0.      0.00 
   2  -4  24     81.98    4.25  0. 1.0000     0.      0.00 
   3  -4  24    255.36    5.24  0. 1.0000     0.      0.00 
   4  -4  24     10.41    4.84  0. 1.0000     0.      0.00 
   5  -4  24    167.04   12.53  0. 1.0000     0.      0.00 
   6  -4  24     98.24   16.82  0. 1.0000     0.      0.00 
   7  -4  24    130.72   14.20  0. 1.0000     0.      0.00 
   8  -4  24     20.75   16.20  0. 1.0000     0.      0.00 
   9  -4  24     25.93   10.76  0. 1.0000     0.      0.00 
  10  -4  24      8.57   11.83  0. 1.0000     0.      0.00 
  -9  -3  24      0.00   27.39  0. 1.0000     0.      0.00 
  -8  -3  24     29.42   24.13  0. 1.0000     0.      0.00 
  -7  -3  24     40.03   31.63  0. 1.0000     0.      0.00 
  -6  -3  24     64.92   10.04  0. 1.0000     0.      0.00 
  -5  -3  24     70.43    7.21  0. 1.0000     0.      0.00 
  -4  -3  24     97.27    5.01  0. 1.0000     0.      0.00 
  -3  -3  24     83.40    4.72  0. 1.0000     0.      0.00 
  -2  -3  24    118.16    5.01  0. 1.0000     0.      0.00 
  -1  -3  24     66.47    3.81  0. 1.0000     0.      0.00 
   0  -3  24    249.11    5.02  0. 1.0000     0.      0.00 
   1  -3  24    193.14    4.88  0. 1.0000     0.      0.00 
   2  -3  24    138.64   13.75  0. 1.0000     0.      0.00 
   3  -3  24    217.23   13.41  0. 1.0000     0.      0.00 
   4  -3  24    136.01   15.99  0. 1.0000     0.      0.00 
   5  -3  24     17.42    7.78  0. 1.0000     0.      0.00 
   6  -3  24      9.80    8.38  0. 1.0000     0.      0.00 
   7  -3  24      2.47    6.77  0. 1.0000     0.      0.00 
   8  -3  24     18.91    5.72  0. 1.0000     0.      0.00 
   9  -3  24     85.21    5.01  0. 1.0000     0.      0.00 
  10  -3  24      9.46    7.81  0. 1.0000     0.      0.00 
  -9  -2  24     34.25   10.93  0. 1.0000     0.      0.00 
  -8  -2  24     91.25    7.81  0. 1.0000     0.      0.00 
  -7  -2  24      8.84    6.88  0. 1.0000     0.      0.00 
  -6  -2  24    114.99    6.16  0. 1.0000     0.      0.00 
  -5  -2  24      4.58    3.77  0. 1.0000     0.      0.00 
  -4  -2  24     99.70    4.22  0. 1.0000     0.      0.00 
  -3  -2  24      2.91    3.78  0. 1.0000     0.      0.00 
  -2  -2  24     31.53    4.84  0. 1.0000     0.      0.00 
  -1  -2  24     18.87   11.35  0. 1.0000     0.      0.00 
   2  -2  24     82.80   21.76  0. 1.0000     0.      0.00 
   3  -2  24     13.38    4.43  0. 1.0000     0.      0.00 
   4  -2  24    235.25    5.34  0. 1.0000     0.      0.00 
   5  -2  24    170.99    4.68  0. 1.0000     0.      0.00 
   6  -2  24     25.06    3.47  0. 1.0000     0.      0.00 
   7  -2  24     29.14    5.27  0. 1.0000     0.      0.00 
   8  -2  24     61.03    8.17  0. 1.0000     0.      0.00 
   9  -2  24     53.16   11.11  0. 1.0000     0.      0.00 
  10  -2  24    123.28   21.45  0. 1.0000     0.      0.00 
 -10  -1  24     88.65    5.71  0. 1.0000     0.      0.00 
  -9  -1  24     13.95    7.00  0. 1.0000     0.      0.00 
  -8  -1  24     13.77    5.47  0. 1.0000     0.      0.00 
  -7  -1  24     44.99    5.82  0. 1.0000     0.      0.00 
  -6  -1  24    101.34    7.83  0. 1.0000     0.      0.00 
  -5  -1  24     35.36    4.80  0. 1.0000     0.      0.00 
  -4  -1  24     27.56    8.37  0. 1.0000     0.      0.00 
  -3  -1  24     10.16   24.83  0. 1.0000     0.      0.00 
  -1  -1  24     12.11   15.34  0. 1.0000     0.      0.00 
   0  -1  24    166.42    4.68  0. 1.0000     0.      0.00 
   1  -1  24    282.45    5.07  0. 1.0000     0.      0.00 
   2  -1  24      6.44    2.92  0. 1.0000     0.      0.00 
   3  -1  24    229.15    4.31  0. 1.0000     0.      0.00 
   4  -1  24     27.08    3.65  0. 1.0000     0.      0.00 
   5  -1  24    160.29    5.68  0. 1.0000     0.      0.00 
   6  -1  24    127.11    9.82  0. 1.0000     0.      0.00 
   7  -1  24     47.34   17.16  0. 1.0000     0.      0.00 
   8  -1  24      0.00   32.27  0. 1.0000     0.      0.00 
   9  -1  24      0.00   31.88  0. 1.0000     0.      0.00 
  10  -1  24     79.22   16.79  0. 1.0000     0.      0.00 
 -10   0  24     10.68    7.00  0. 1.0000     0.      0.00 
  -9   0  24     20.14    7.34  0. 1.0000     0.      0.00 
  -8   0  24     33.51    8.11  0. 1.0000     0.      0.00 
  -7   0  24     47.17   18.18  0. 1.0000     0.      0.00 
  -6   0  24     61.08   24.02  0. 1.0000     0.      0.00 
  -5   0  24    280.08   18.75  0. 1.0000     0.      0.00 
  -4   0  24     30.22    8.38  0. 1.0000     0.      0.00 
  -3   0  24    349.87    6.10  0. 1.0000     0.      0.00 
  -2   0  24     16.07    3.17  0. 1.0000     0.      0.00 
  -1   0  24    261.05    4.45  0. 1.0000     0.      0.00 
   0   0  24    202.34    4.19  0. 1.0000     0.      0.00 
   1   0  24     25.70    3.43  0. 1.0000     0.      0.00 
   2   0  24     21.41    3.44  0. 1.0000     0.      0.00 
   3   0  24     64.89    6.33  0. 1.0000     0.      0.00 
   4   0  24      1.40   23.85  0. 1.0000     0.      0.00 
   7   0  24      0.00   36.72  0. 1.0000     0.      0.00 
   8   0  24     45.33   11.86  0. 1.0000     0.      0.00 
   9   0  24     11.63   10.10  0. 1.0000     0.      0.00 
 -10   1  24     60.22   16.25  0. 1.0000     0.      0.00 
  -9   1  24    113.79   20.58  0. 1.0000     0.      0.00 
  -8   1  24    201.63   46.76  0. 1.0000     0.      0.00 
  -7   1  24    169.93   10.79  0. 1.0000     0.      0.00 
  -6   1  24      8.88    6.24  0. 1.0000     0.      0.00 
  -5   1  24    166.45    5.11  0. 1.0000     0.      0.00 
  -4   1  24    176.34    4.39  0. 1.0000     0.      0.00 
  -3   1  24     25.44    3.23  0. 1.0000     0.      0.00 
  -2   1  24     69.00    3.12  0. 1.0000     0.      0.00 
  -1   1  24     48.90    3.76  0. 1.0000     0.      0.00 
   0   1  24     45.26    3.90  0. 1.0000     0.      0.00 
   5   1  24      5.40    7.80  0. 1.0000     0.      0.00 
   6   1  24     29.41    7.04  0. 1.0000     0.      0.00 
   7   1  24    133.29    6.80  0. 1.0000     0.      0.00 
   8   1  24    119.40    5.98  0. 1.0000     0.      0.00 
   9   1  24      8.68    9.81  0. 1.0000     0.      0.00 
 -10   2  24      0.00   12.93  0. 1.0000     0.      0.00 
  -9   2  24     29.71    8.23  0. 1.0000     0.      0.00 
  -8   2  24     11.28    6.84  0. 1.0000     0.      0.00 
  -7   2  24     97.73    6.45  0. 1.0000     0.      0.00 
  -6   2  24     10.39    4.20  0. 1.0000     0.      0.00 
  -5   2  24     40.76    3.85  0. 1.0000     0.      0.00 
  -4   2  24     85.80    4.43  0. 1.0000     0.      0.00 
  -3   2  24    218.07    5.57  0. 1.0000     0.      0.00 
   2   2  24     40.60    5.12  0. 1.0000     0.      0.00 
   3   2  24    240.82    6.50  0. 1.0000     0.      0.00 
   4   2  24     53.30    4.34  0. 1.0000     0.      0.00 
   5   2  24      1.46    4.13  0. 1.0000     0.      0.00 
   6   2  24     14.54    5.48  0. 1.0000     0.      0.00 
   7   2  24     18.25    9.01  0. 1.0000     0.      0.00 
   8   2  24     63.26   13.82  0. 1.0000     0.      0.00 
   9   2  24     61.09   21.17  0. 1.0000     0.      0.00 
 -10   3  24     12.34    8.13  0. 1.0000     0.      0.00 
  -9   3  24     13.18    5.71  0. 1.0000     0.      0.00 
  -8   3  24     46.58    5.56  0. 1.0000     0.      0.00 
  -7   3  24     95.78    6.05  0. 1.0000     0.      0.00 
  -6   3  24     79.22    7.80  0. 1.0000     0.      0.00 
  -5   3  24    115.50   11.89  0. 1.0000     0.      0.00 
  -4   3  24     43.30   17.06  0. 1.0000     0.      0.00 
  -3   3  24    117.90   26.43  0. 1.0000     0.      0.00 
  -2   3  24     12.85   23.14  0. 1.0000     0.      0.00 
  -1   3  24     14.80    4.80  0. 1.0000     0.      0.00 
   0   3  24    204.34    5.09  0. 1.0000     0.      0.00 
   1   3  24      1.48    3.17  0. 1.0000     0.      0.00 
   2   3  24    270.36    5.03  0. 1.0000     0.      0.00 
   3   3  24    284.04    5.89  0. 1.0000     0.      0.00 
   4   3  24     15.78    5.30  0. 1.0000     0.      0.00 
   5   3  24      0.00    9.93  0. 1.0000     0.      0.00 
 -10   4  24     14.97    8.70  0. 1.0000     0.      0.00 
  -9   4  24      8.43    8.98  0. 1.0000     0.      0.00 
  -8   4  24     12.97   14.25  0. 1.0000     0.      0.00 
  -7   4  24     26.83   23.66  0. 1.0000     0.      0.00 
  -6   4  24    199.10   29.43  0. 1.0000     0.      0.00 
  -5   4  24     41.02   16.90  0. 1.0000     0.      0.00 
  -4   4  24    260.88    7.83  0. 1.0000     0.      0.00 
  -3   4  24      0.00    4.05  0. 1.0000     0.      0.00 
  -2   4  24    292.53    6.06  0. 1.0000     0.      0.00 
  -1   4  24    293.23    4.55  0. 1.0000     0.      0.00 
   0   4  24     10.88    2.86  0. 1.0000     0.      0.00 
   1   4  24     58.84    3.59  0. 1.0000     0.      0.00 
   2   4  24      1.30    8.65  0. 1.0000     0.      0.00 
   7   4  24      0.00   26.61  0. 1.0000     0.      0.00 
   8   4  24     59.48    8.10  0. 1.0000     0.      0.00 
 -10   5  24     11.19   17.65  0. 1.0000     0.      0.00 
  -9   5  24     32.06   22.44  0. 1.0000     0.      0.00 
  -8   5  24      9.71   14.13  0. 1.0000     0.      0.00 
  -7   5  24     11.96    7.64  0. 1.0000     0.      0.00 
  -6   5  24     63.93    6.73  0. 1.0000     0.      0.00 
  -5   5  24    127.42    7.01  0. 1.0000     0.      0.00 
  -4   5  24      9.10    3.66  0. 1.0000     0.      0.00 
  -3   5  24    138.21    4.30  0. 1.0000     0.      0.00 
  -2   5  24     33.26    4.45  0. 1.0000     0.      0.00 
  -1   5  24    125.09   10.42  0. 1.0000     0.      0.00 
   4   5  24      2.28   14.87  0. 1.0000     0.      0.00 
   5   5  24     55.91    7.77  0. 1.0000     0.      0.00 
   6   5  24    152.60    8.29  0. 1.0000     0.      0.00 
   7   5  24     18.31    7.40  0. 1.0000     0.      0.00 
  -9   6  24     32.91    8.23  0. 1.0000     0.      0.00 
  -8   6  24     19.85    6.43  0. 1.0000     0.      0.00 
  -7   6  24     18.04    4.83  0. 1.0000     0.      0.00 
  -6   6  24     73.47    5.57  0. 1.0000     0.      0.00 
  -5   6  24      8.55    8.42  0. 1.0000     0.      0.00 
  -4   6  24     54.44   11.20  0. 1.0000     0.      0.00 
  -3   6  24     36.90   16.91  0. 1.0000     0.      0.00 
  -2   6  24     62.23   45.77  0. 1.0000     0.      0.00 
   0   6  24      0.00   32.07  0. 1.0000     0.      0.00 
   1   6  24     16.67   11.71  0. 1.0000     0.      0.00 
   2   6  24     55.73    7.05  0. 1.0000     0.      0.00 
   3   6  24      9.86    5.85  0. 1.0000     0.      0.00 
   4   6  24      5.71    5.39  0. 1.0000     0.      0.00 
   5   6  24     52.53    7.32  0. 1.0000     0.      0.00 
   6   6  24     98.08   11.94  0. 1.0000     0.      0.00 
  -9   7  24      3.42    7.67  0. 1.0000     0.      0.00 
  -8   7  24     21.68    8.03  0. 1.0000     0.      0.00 
  -7   7  24     41.29   13.36  0. 1.0000     0.      0.00 
  -6   7  24      3.50   17.73  0. 1.0000     0.      0.00 
  -5   7  24      0.00   32.21  0. 1.0000     0.      0.00 
  -4   7  24      0.00   53.39  0. 1.0000     0.      0.00 
  -3   7  24     11.24   18.15  0. 1.0000     0.      0.00 
  -2   7  24      0.00   10.90  0. 1.0000     0.      0.00 
  -1   7  24      0.00    7.79  0. 1.0000     0.      0.00 
   0   7  24      0.00    4.82  0. 1.0000     0.      0.00 
   1   7  24    285.05    6.53  0. 1.0000     0.      0.00 
   2   7  24    169.85    6.93  0. 1.0000     0.      0.00 
   3   7  24      1.25    7.54  0. 1.0000     0.      0.00 
   4   7  24     21.64   18.84  0. 1.0000     0.      0.00 
  -8   8  24     30.33   40.79  0. 1.0000     0.      0.00 
  -7   8  24     19.98   45.36  0. 1.0000     0.      0.00 
  -6   8  24      7.29   23.90  0. 1.0000     0.      0.00 
  -5   8  24      0.00   13.23  0. 1.0000     0.      0.00 
  -4   8  24      0.00    8.30  0. 1.0000     0.      0.00 
  -3   8  24    151.20    5.90  0. 1.0000     0.      0.00 
  -2   8  24     75.80    4.42  0. 1.0000     0.      0.00 
  -1   8  24      4.00    5.61  0. 1.0000     0.      0.00 
   0   8  24     81.35    8.87  0. 1.0000     0.      0.00 
   1   8  24      0.00   25.08  0. 1.0000     0.      0.00 
  -7   9  24      0.00   10.09  0. 1.0000     0.      0.00 
  -6   9  24     66.06    7.71  0. 1.0000     0.      0.00 
  -5   9  24      0.00    5.15  0. 1.0000     0.      0.00 
  -4   9  24     52.96    6.55  0. 1.0000     0.      0.00 
  -3   9  24     77.69   14.49  0. 1.0000     0.      0.00 
  -2   9  24      0.53   16.51  0. 1.0000     0.      0.00 
   2   9  24      0.00   47.10  0. 1.0000     0.      0.00 
  -5  10  24     11.02   18.11  0. 1.0000     0.      0.00 
  -4  10  24      0.00   34.38  0. 1.0000     0.      0.00 
  -3  10  24     54.98   37.96  0. 1.0000     0.      0.00 
  -1  10  24      1.24   35.90  0. 1.0000     0.      0.00 
   0  10  24      9.06    8.51  0. 1.0000     0.      0.00 
   1 -11  25     18.09    8.91  0. 1.0000     0.      0.00 
   2 -11  25     13.89    8.44  0. 1.0000     0.      0.00 
   3 -11  25    212.88    9.46  0. 1.0000     0.      0.00 
   4 -11  25     65.29   11.10  0. 1.0000     0.      0.00 
  -2 -10  25     34.05    8.93  0. 1.0000     0.      0.00 
  -1 -10  25     55.32    8.69  0. 1.0000     0.      0.00 
   0 -10  25    349.89   10.76  0. 1.0000     0.      0.00 
   1 -10  25     27.62   15.45  0. 1.0000     0.      0.00 
   2 -10  25     21.83   23.81  0. 1.0000     0.      0.00 
   3 -10  25      0.00   36.55  0. 1.0000     0.      0.00 
   4 -10  25      9.52   14.53  0. 1.0000     0.      0.00 
   5 -10  25     22.77    8.67  0. 1.0000     0.      0.00 
   6 -10  25     14.97    8.35  0. 1.0000     0.      0.00 
  -3  -9  25     27.78   10.02  0. 1.0000     0.      0.00 
  -2  -9  25    122.18   13.31  0. 1.0000     0.      0.00 
  -1  -9  25     49.32   24.63  0. 1.0000     0.      0.00 
   0  -9  25     98.04   38.77  0. 1.0000     0.      0.00 
   1  -9  25     53.50   15.45  0. 1.0000     0.      0.00 
   2  -9  25      0.00    7.63  0. 1.0000     0.      0.00 
   3  -9  25     13.75    6.92  0. 1.0000     0.      0.00 
   4  -9  25     23.50    5.65  0. 1.0000     0.      0.00 
   5  -9  25    112.02    5.65  0. 1.0000     0.      0.00 
   6  -9  25    181.30    7.92  0. 1.0000     0.      0.00 
   7  -9  25    111.13    8.38  0. 1.0000     0.      0.00 
   8  -9  25      0.00   48.05  0. 1.0000     0.      0.00 
  -5  -8  25      0.00   13.73  0. 1.0000     0.      0.00 
  -4  -8  25    134.61   17.66  0. 1.0000     0.      0.00 
  -3  -8  25     20.48   18.36  0. 1.0000     0.      0.00 
  -2  -8  25    154.99   15.40  0. 1.0000     0.      0.00 
  -1  -8  25      8.48    7.72  0. 1.0000     0.      0.00 
   0  -8  25      0.00    7.35  0. 1.0000     0.      0.00 
   1  -8  25    132.09    5.65  0. 1.0000     0.      0.00 
   2  -8  25     13.46    4.93  0. 1.0000     0.      0.00 
   3  -8  25    482.45   10.53  0. 1.0000     0.      0.00 
   4  -8  25     18.76    6.63  0. 1.0000     0.      0.00 
   5  -8  25     19.37    7.34  0. 1.0000     0.      0.00 
   6  -8  25    113.52   16.99  0. 1.0000     0.      0.00 
   7  -8  25     51.10   25.62  0. 1.0000     0.      0.00 
   8  -8  25      0.00   35.43  0. 1.0000     0.      0.00 
  -6  -7  25    175.24   29.22  0. 1.0000     0.      0.00 
  -5  -7  25    114.49   15.06  0. 1.0000     0.      0.00 
  -4  -7  25     67.79    8.62  0. 1.0000     0.      0.00 
  -3  -7  25     32.48    7.90  0. 1.0000     0.      0.00 
  -2  -7  25      3.99    7.33  0. 1.0000     0.      0.00 
  -1  -7  25    132.22    6.77  0. 1.0000     0.      0.00 
   0  -7  25      6.34    7.44  0. 1.0000     0.      0.00 
   1  -7  25     11.01    5.73  0. 1.0000     0.      0.00 
   2  -7  25    145.92    7.48  0. 1.0000     0.      0.00 
   3  -7  25    366.28   15.43  0. 1.0000     0.      0.00 
   4  -7  25     15.30   21.89  0. 1.0000     0.      0.00 
   5  -7  25      6.32   25.02  0. 1.0000     0.      0.00 
   6  -7  25      4.18   11.51  0. 1.0000     0.      0.00 
   7  -7  25      4.58    9.01  0. 1.0000     0.      0.00 
   8  -7  25     47.56    8.18  0. 1.0000     0.      0.00 
   9  -7  25     63.53    7.52  0. 1.0000     0.      0.00 
  -7  -6  25     62.42    6.16  0. 1.0000     0.      0.00 
  -6  -6  25     38.83    9.21  0. 1.0000     0.      0.00 
  -5  -6  25     50.56    7.78  0. 1.0000     0.      0.00 
  -4  -6  25     62.28    6.82  0. 1.0000     0.      0.00 
  -3  -6  25      5.83    5.86  0. 1.0000     0.      0.00 
  -2  -6  25     15.61    7.28  0. 1.0000     0.      0.00 
  -1  -6  25    294.89   11.11  0. 1.0000     0.      0.00 
   0  -6  25    318.63   29.13  0. 1.0000     0.      0.00 
   1  -6  25    158.39   14.51  0. 1.0000     0.      0.00 
   2  -6  25     23.05   11.05  0. 1.0000     0.      0.00 
   3  -6  25      0.00   13.51  0. 1.0000     0.      0.00 
   4  -6  25     41.20    8.14  0. 1.0000     0.      0.00 
   5  -6  25      5.06    7.62  0. 1.0000     0.      0.00 
   6  -6  25    168.43    6.41  0. 1.0000     0.      0.00 
   7  -6  25     48.72    4.81  0. 1.0000     0.      0.00 
   8  -6  25     90.18    6.67  0. 1.0000     0.      0.00 
   9  -6  25     55.92    8.41  0. 1.0000     0.      0.00 
  -7  -5  25     24.06    8.39  0. 1.0000     0.      0.00 
  -6  -5  25     11.37    6.64  0. 1.0000     0.      0.00 
  -5  -5  25     55.16    9.59  0. 1.0000     0.      0.00 
  -4  -5  25      7.32    7.90  0. 1.0000     0.      0.00 
  -3  -5  25    632.79   20.34  0. 1.0000     0.      0.00 
  -2  -5  25    182.15   20.22  0. 1.0000     0.      0.00 
  -1  -5  25     78.12   11.98  0. 1.0000     0.      0.00 
   0  -5  25     27.57    8.72  0. 1.0000     0.      0.00 
   1  -5  25      0.00    5.10  0. 1.0000     0.      0.00 
   2  -5  25     37.76    4.51  0. 1.0000     0.      0.00 
   3  -5  25     14.46    4.03  0. 1.0000     0.      0.00 
   4  -5  25     22.25    4.38  0. 1.0000     0.      0.00 
   5  -5  25    111.52    6.69  0. 1.0000     0.      0.00 
   6  -5  25    347.02   10.24  0. 1.0000     0.      0.00 
   7  -5  25     10.75    7.58  0. 1.0000     0.      0.00 
   8  -5  25     79.44   15.96  0. 1.0000     0.      0.00 
   9  -5  25     18.79   22.73  0. 1.0000     0.      0.00 
  -8  -4  25     29.62    9.41  0. 1.0000     0.      0.00 
  -7  -4  25     83.86    9.64  0. 1.0000     0.      0.00 
  -6  -4  25    225.74   17.07  0. 1.0000     0.      0.00 
  -5  -4  25      6.53   16.70  0. 1.0000     0.      0.00 
  -4  -4  25     68.71   16.29  0. 1.0000     0.      0.00 
  -3  -4  25    553.24   59.13  0. 1.0000     0.      0.00 
  -2  -4  25     51.08    5.14  0. 1.0000     0.      0.00 
  -1  -4  25     17.11    4.68  0. 1.0000     0.      0.00 
   0  -4  25     63.24    4.05  0. 1.0000     0.      0.00 
   1  -4  25     37.45    3.90  0. 1.0000     0.      0.00 
   2  -4  25    354.99    6.93  0. 1.0000     0.      0.00 
   3  -4  25    137.76    4.70  0. 1.0000     0.      0.00 
   4  -4  25     43.36    5.86  0. 1.0000     0.      0.00 
   5  -4  25      8.68   14.05  0. 1.0000     0.      0.00 
   6  -4  25     23.13   16.86  0. 1.0000     0.      0.00 
   7  -4  25      0.00   17.90  0. 1.0000     0.      0.00 
   8  -4  25     24.69   13.35  0. 1.0000     0.      0.00 
   9  -4  25     18.12   12.04  0. 1.0000     0.      0.00 
  10  -4  25     21.58    7.76  0. 1.0000     0.      0.00 
  -8  -3  25     59.76   29.34  0. 1.0000     0.      0.00 
  -7  -3  25    306.54   38.08  0. 1.0000     0.      0.00 
  -6  -3  25    372.49   24.51  0. 1.0000     0.      0.00 
  -5  -3  25      8.79    6.93  0. 1.0000     0.      0.00 
  -4  -3  25      1.16    5.33  0. 1.0000     0.      0.00 
  -3  -3  25     23.86    4.53  0. 1.0000     0.      0.00 
  -2  -3  25     12.51    4.10  0. 1.0000     0.      0.00 
  -1  -3  25     78.73    3.96  0. 1.0000     0.      0.00 
   0  -3  25    325.57    6.29  0. 1.0000     0.      0.00 
   1  -3  25    142.30    4.98  0. 1.0000     0.      0.00 
   2  -3  25    124.52   13.82  0. 1.0000     0.      0.00 
   3  -3  25     48.20   29.05  0. 1.0000     0.      0.00 
   4  -3  25      0.28   20.18  0. 1.0000     0.      0.00 
   5  -3  25     24.83   12.20  0. 1.0000     0.      0.00 
   6  -3  25     25.26    9.26  0. 1.0000     0.      0.00 
   7  -3  25     25.97    6.95  0. 1.0000     0.      0.00 
   8  -3  25     42.53    5.69  0. 1.0000     0.      0.00 
   9  -3  25     83.21    5.54  0. 1.0000     0.      0.00 
  10  -3  25     15.84    9.39  0. 1.0000     0.      0.00 
  -9  -2  25     63.55   12.59  0. 1.0000     0.      0.00 
  -8  -2  25    180.96    9.22  0. 1.0000     0.      0.00 
  -7  -2  25      7.42    7.08  0. 1.0000     0.      0.00 
  -6  -2  25     24.17    5.21  0. 1.0000     0.      0.00 
  -5  -2  25     54.69    4.35  0. 1.0000     0.      0.00 
  -4  -2  25     14.22    3.80  0. 1.0000     0.      0.00 
  -3  -2  25    410.55    7.36  0. 1.0000     0.      0.00 
  -2  -2  25     14.64    4.18  0. 1.0000     0.      0.00 
  -1  -2  25     35.69   19.31  0. 1.0000     0.      0.00 
   2  -2  25     69.28   22.05  0. 1.0000     0.      0.00 
   3  -2  25     84.17    5.03  0. 1.0000     0.      0.00 
   4  -2  25      0.78    4.33  0. 1.0000     0.      0.00 
   5  -2  25     96.54    4.97  0. 1.0000     0.      0.00 
   6  -2  25    127.27    4.45  0. 1.0000     0.      0.00 
   7  -2  25      9.65    6.13  0. 1.0000     0.      0.00 
   8  -2  25      1.49    7.80  0. 1.0000     0.      0.00 
   9  -2  25     44.86   13.10  0. 1.0000     0.      0.00 
  -9  -1  25     16.34    7.40  0. 1.0000     0.      0.00 
  -8  -1  25     27.77    5.80  0. 1.0000     0.      0.00 
  -7  -1  25     42.27    6.16  0. 1.0000     0.      0.00 
  -6  -1  25     33.15    5.64  0. 1.0000     0.      0.00 
  -5  -1  25      6.57    5.39  0. 1.0000     0.      0.00 
  -4  -1  25    529.87   19.33  0. 1.0000     0.      0.00 
  -3  -1  25    921.19   78.76  0. 1.0000     0.      0.00 
  -1  -1  25     85.91   38.43  0. 1.0000     0.      0.00 
   0  -1  25     82.11    5.08  0. 1.0000     0.      0.00 
   1  -1  25     17.26    3.85  0. 1.0000     0.      0.00 
   2  -1  25     11.67    3.26  0. 1.0000     0.      0.00 
   3  -1  25     46.42    3.19  0. 1.0000     0.      0.00 
   4  -1  25     20.21    3.71  0. 1.0000     0.      0.00 
   5  -1  25     72.43    5.83  0. 1.0000     0.      0.00 
   6  -1  25     87.17   11.99  0. 1.0000     0.      0.00 
   7  -1  25      0.00   20.17  0. 1.0000     0.      0.00 
  -9   0  25     12.36    7.63  0. 1.0000     0.      0.00 
  -8   0  25     20.41    8.71  0. 1.0000     0.      0.00 
  -7   0  25     95.08   12.77  0. 1.0000     0.      0.00 
  -6   0  25     76.38   29.18  0. 1.0000     0.      0.00 
  -5   0  25    375.97   24.75  0. 1.0000     0.      0.00 
  -4   0  25    323.50   30.15  0. 1.0000     0.      0.00 
  -3   0  25    101.58    5.23  0. 1.0000     0.      0.00 
  -2   0  25      8.79    3.73  0. 1.0000     0.      0.00 
  -1   0  25      5.61    3.22  0. 1.0000     0.      0.00 
   0   0  25    185.34    4.48  0. 1.0000     0.      0.00 
   1   0  25     22.95    3.21  0. 1.0000     0.      0.00 
   2   0  25    208.66    4.72  0. 1.0000     0.      0.00 
   3   0  25    421.20   10.59  0. 1.0000     0.      0.00 
   7   0  25     26.54   38.54  0. 1.0000     0.      0.00 
   8   0  25     14.79   12.19  0. 1.0000     0.      0.00 
   9   0  25     13.49   11.99  0. 1.0000     0.      0.00 
 -10   1  25     14.94   13.08  0. 1.0000     0.      0.00 
  -9   1  25    192.67   22.74  0. 1.0000     0.      0.00 
  -8   1  25     17.83   25.20  0. 1.0000     0.      0.00 
  -7   1  25    102.98   11.51  0. 1.0000     0.      0.00 
  -6   1  25     11.49    6.45  0. 1.0000     0.      0.00 
  -5   1  25     98.82    5.11  0. 1.0000     0.      0.00 
  -4   1  25      7.23    3.61  0. 1.0000     0.      0.00 
  -3   1  25     53.35    3.22  0. 1.0000     0.      0.00 
  -2   1  25     17.16    2.93  0. 1.0000     0.      0.00 
  -1   1  25    260.44    5.00  0. 1.0000     0.      0.00 
   0   1  25    502.65    8.80  0. 1.0000     0.      0.00 
   5   1  25     95.61   14.23  0. 1.0000     0.      0.00 
   6   1  25     15.56    6.46  0. 1.0000     0.      0.00 
   7   1  25      9.70    6.03  0. 1.0000     0.      0.00 
   8   1  25      9.93    6.19  0. 1.0000     0.      0.00 
   9   1  25     35.03   10.32  0. 1.0000     0.      0.00 
 -10   2  25     48.90    6.57  0. 1.0000     0.      0.00 
  -9   2  25    387.88   11.38  0. 1.0000     0.      0.00 
  -8   2  25     31.54    6.73  0. 1.0000     0.      0.00 
  -7   2  25     13.94    5.47  0. 1.0000     0.      0.00 
  -6   2  25     18.85    4.98  0. 1.0000     0.      0.00 
  -5   2  25     10.21    4.23  0. 1.0000     0.      0.00 
  -4   2  25    114.34    4.49  0. 1.0000     0.      0.00 
  -3   2  25      8.39    5.53  0. 1.0000     0.      0.00 
   2   2  25      3.90    9.57  0. 1.0000     0.      0.00 
   3   2  25     12.48    4.33  0. 1.0000     0.      0.00 
   4   2  25      5.15    5.03  0. 1.0000     0.      0.00 
   5   2  25    102.40    5.37  0. 1.0000     0.      0.00 
   6   2  25    113.36    7.11  0. 1.0000     0.      0.00 
   7   2  25     34.15    9.82  0. 1.0000     0.      0.00 
   8   2  25     15.04   13.69  0. 1.0000     0.      0.00 
 -10   3  25     31.98    5.98  0. 1.0000     0.      0.00 
  -9   3  25     25.85    6.09  0. 1.0000     0.      0.00 
  -8   3  25      5.99    5.46  0. 1.0000     0.      0.00 
  -7   3  25      6.88    6.22  0. 1.0000     0.      0.00 
  -6   3  25     21.36    8.06  0. 1.0000     0.      0.00 
  -5   3  25     12.46   13.59  0. 1.0000     0.      0.00 
  -4   3  25    157.73   20.87  0. 1.0000     0.      0.00 
  -3   3  25      2.01   41.57  0. 1.0000     0.      0.00 
  -1   3  25      0.00    6.24  0. 1.0000     0.      0.00 
   0   3  25     27.99    3.54  0. 1.0000     0.      0.00 
   1   3  25      0.00    4.14  0. 1.0000     0.      0.00 
   2   3  25     62.10    3.46  0. 1.0000     0.      0.00 
   3   3  25     84.97    5.08  0. 1.0000     0.      0.00 
   4   3  25     11.93    6.55  0. 1.0000     0.      0.00 
   5   3  25    136.03   12.49  0. 1.0000     0.      0.00 
  -9   4  25     29.08    9.68  0. 1.0000     0.      0.00 
  -8   4  25     29.16   18.71  0. 1.0000     0.      0.00 
  -7   4  25     98.49   31.37  0. 1.0000     0.      0.00 
  -6   4  25    788.35   37.22  0. 1.0000     0.      0.00 
  -5   4  25     38.11   19.86  0. 1.0000     0.      0.00 
  -4   4  25     18.68    9.31  0. 1.0000     0.      0.00 
  -3   4  25      4.16    5.76  0. 1.0000     0.      0.00 
  -2   4  25     11.50    3.66  0. 1.0000     0.      0.00 
  -1   4  25     24.54    2.83  0. 1.0000     0.      0.00 
   0   4  25      7.15    3.11  0. 1.0000     0.      0.00 
   1   4  25     11.98    4.26  0. 1.0000     0.      0.00 
   2   4  25    173.11   14.08  0. 1.0000     0.      0.00 
   7   4  25      0.00   28.99  0. 1.0000     0.      0.00 
  -9   5  25    105.97   33.99  0. 1.0000     0.      0.00 
  -8   5  25      9.37   13.33  0. 1.0000     0.      0.00 
  -7   5  25      0.00    7.83  0. 1.0000     0.      0.00 
  -6   5  25    193.55    7.61  0. 1.0000     0.      0.00 
  -5   5  25      1.03    5.49  0. 1.0000     0.      0.00 
  -4   5  25     70.57    5.25  0. 1.0000     0.      0.00 
  -3   5  25     14.19    4.88  0. 1.0000     0.      0.00 
  -2   5  25      1.00    5.94  0. 1.0000     0.      0.00 
  -1   5  25     64.80   11.86  0. 1.0000     0.      0.00 
   4   5  25      7.41   14.11  0. 1.0000     0.      0.00 
   5   5  25      0.00    8.18  0. 1.0000     0.      0.00 
   6   5  25      5.89    8.08  0. 1.0000     0.      0.00 
  -9   6  25     34.96    8.82  0. 1.0000     0.      0.00 
  -8   6  25     48.11    7.46  0. 1.0000     0.      0.00 
  -7   6  25      7.42    4.64  0. 1.0000     0.      0.00 
  -6   6  25     13.91    5.42  0. 1.0000     0.      0.00 
  -5   6  25      4.08    9.00  0. 1.0000     0.      0.00 
  -4   6  25     18.56   14.69  0. 1.0000     0.      0.00 
  -3   6  25    335.15   34.88  0. 1.0000     0.      0.00 
   1   6  25      0.00   12.53  0. 1.0000     0.      0.00 
   2   6  25     27.57    7.71  0. 1.0000     0.      0.00 
   3   6  25      2.57    6.58  0. 1.0000     0.      0.00 
   4   6  25      7.61    6.20  0. 1.0000     0.      0.00 
   5   6  25     55.48    8.12  0. 1.0000     0.      0.00 
  -8   7  25      1.47    8.51  0. 1.0000     0.      0.00 
  -7   7  25     52.51   13.77  0. 1.0000     0.      0.00 
  -6   7  25    110.61   20.94  0. 1.0000     0.      0.00 
  -5   7  25     21.32   34.52  0. 1.0000     0.      0.00 
  -4   7  25      0.00   59.51  0. 1.0000     0.      0.00 
  -3   7  25    423.46   46.75  0. 1.0000     0.      0.00 
  -2   7  25     32.97   11.94  0. 1.0000     0.      0.00 
  -1   7  25    123.30    9.97  0. 1.0000     0.      0.00 
   0   7  25      0.00    5.96  0. 1.0000     0.      0.00 
   1   7  25      5.54    5.11  0. 1.0000     0.      0.00 
   2   7  25     12.64    6.71  0. 1.0000     0.      0.00 
   3   7  25     14.69    8.45  0. 1.0000     0.      0.00 
   4   7  25      6.58   27.13  0. 1.0000     0.      0.00 
  -7   8  25    220.17   42.90  0. 1.0000     0.      0.00 
  -6   8  25     88.55   26.35  0. 1.0000     0.      0.00 
  -5   8  25     24.82   13.80  0. 1.0000     0.      0.00 
  -4   8  25      0.00   10.12  0. 1.0000     0.      0.00 
  -3   8  25      5.57    5.29  0. 1.0000     0.      0.00 
  -2   8  25      7.46    4.11  0. 1.0000     0.      0.00 
  -1   8  25     10.68    5.41  0. 1.0000     0.      0.00 
   0   8  25      0.00   12.54  0. 1.0000     0.      0.00 
   1   8  25     58.64   26.26  0. 1.0000     0.      0.00 
  -6   9  25      0.00    8.13  0. 1.0000     0.      0.00 
  -5   9  25     23.13    5.31  0. 1.0000     0.      0.00 
  -4   9  25      2.30    7.38  0. 1.0000     0.      0.00 
  -3   9  25      5.97   15.18  0. 1.0000     0.      0.00 
  -2   9  25     10.55   17.61  0. 1.0000     0.      0.00 
  -1 -10  26     25.15    9.73  0. 1.0000     0.      0.00 
   0 -10  26     23.16    9.89  0. 1.0000     0.      0.00 
   1 -10  26    375.05   20.62  0. 1.0000     0.      0.00 
   2 -10  26     47.19   29.93  0. 1.0000     0.      0.00 
   3 -10  26      4.94   29.94  0. 1.0000     0.      0.00 
   4 -10  26    212.39   21.32  0. 1.0000     0.      0.00 
   5 -10  26      7.43    9.73  0. 1.0000     0.      0.00 
  -3  -9  26    220.71   11.96  0. 1.0000     0.      0.00 
  -2  -9  26     17.17   15.19  0. 1.0000     0.      0.00 
  -1  -9  26    172.37   29.16  0. 1.0000     0.      0.00 
   0  -9  26    101.47   37.94  0. 1.0000     0.      0.00 
   1  -9  26     22.92   16.23  0. 1.0000     0.      0.00 
   2  -9  26     21.42    7.81  0. 1.0000     0.      0.00 
   3  -9  26      8.25    6.91  0. 1.0000     0.      0.00 
   4  -9  26      3.63    5.97  0. 1.0000     0.      0.00 
   5  -9  26    255.78    7.07  0. 1.0000     0.      0.00 
   6  -9  26      0.00    7.39  0. 1.0000     0.      0.00 
   7  -9  26    103.18    8.64  0. 1.0000     0.      0.00 
  -4  -8  26     31.47   21.56  0. 1.0000     0.      0.00 
  -3  -8  26    317.20   20.31  0. 1.0000     0.      0.00 
  -2  -8  26     42.33   14.20  0. 1.0000     0.      0.00 
  -1  -8  26     98.89    8.87  0. 1.0000     0.      0.00 
   0  -8  26     82.02    7.58  0. 1.0000     0.      0.00 
   1  -8  26     68.63    7.12  0. 1.0000     0.      0.00 
   2  -8  26     31.94    5.64  0. 1.0000     0.      0.00 
   3  -8  26     11.19    6.25  0. 1.0000     0.      0.00 
   4  -8  26    246.37    7.95  0. 1.0000     0.      0.00 
   5  -8  26    397.46   10.36  0. 1.0000     0.      0.00 
   6  -8  26     16.66   14.78  0. 1.0000     0.      0.00 
   7  -8  26     65.95   29.05  0. 1.0000     0.      0.00 
   8  -8  26      1.89   11.69  0. 1.0000     0.      0.00 
  -5  -7  26    235.99   32.02  0. 1.0000     0.      0.00 
  -4  -7  26     12.22    8.78  0. 1.0000     0.      0.00 
  -3  -7  26     40.98    7.24  0. 1.0000     0.      0.00 
  -2  -7  26      0.00    6.66  0. 1.0000     0.      0.00 
  -1  -7  26     19.13    6.42  0. 1.0000     0.      0.00 
   0  -7  26    183.07    6.92  0. 1.0000     0.      0.00 
   1  -7  26    432.54   10.60  0. 1.0000     0.      0.00 
   2  -7  26    145.23    7.20  0. 1.0000     0.      0.00 
   3  -7  26     19.52   13.60  0. 1.0000     0.      0.00 
   4  -7  26    141.17   18.47  0. 1.0000     0.      0.00 
   5  -7  26     12.75   14.46  0. 1.0000     0.      0.00 
   6  -7  26      4.77   11.87  0. 1.0000     0.      0.00 
   7  -7  26     95.29   10.28  0. 1.0000     0.      0.00 
   8  -7  26     44.26    9.09  0. 1.0000     0.      0.00 
  -6  -6  26     41.83    9.57  0. 1.0000     0.      0.00 
  -5  -6  26     27.86    7.90  0. 1.0000     0.      0.00 
  -4  -6  26     56.31    6.90  0. 1.0000     0.      0.00 
  -3  -6  26     64.13    6.76  0. 1.0000     0.      0.00 
  -2  -6  26     10.24    7.49  0. 1.0000     0.      0.00 
  -1  -6  26    150.57    9.00  0. 1.0000     0.      0.00 
   0  -6  26   1071.28   47.72  0. 1.0000     0.      0.00 
   1  -6  26    106.40   16.08  0. 1.0000     0.      0.00 
   2  -6  26    143.46   21.73  0. 1.0000     0.      0.00 
   3  -6  26     73.93   11.79  0. 1.0000     0.      0.00 
   4  -6  26      3.96    8.04  0. 1.0000     0.      0.00 
   5  -6  26    171.32    7.67  0. 1.0000     0.      0.00 
   6  -6  26    163.31    6.18  0. 1.0000     0.      0.00 
   7  -6  26      8.13    4.83  0. 1.0000     0.      0.00 
   8  -6  26    313.37    8.81  0. 1.0000     0.      0.00 
   9  -6  26     21.38    8.98  0. 1.0000     0.      0.00 
  -7  -5  26     17.44    8.76  0. 1.0000     0.      0.00 
  -6  -5  26     50.08    7.94  0. 1.0000     0.      0.00 
  -5  -5  26     75.25    8.12  0. 1.0000     0.      0.00 
  -4  -5  26    524.17   12.63  0. 1.0000     0.      0.00 
  -3  -5  26     18.94   12.69  0. 1.0000     0.      0.00 
  -2  -5  26    514.66   32.05  0. 1.0000     0.      0.00 
  -1  -5  26     42.68   20.61  0. 1.0000     0.      0.00 
   0  -5  26     47.27   12.45  0. 1.0000     0.      0.00 
   1  -5  26     10.00    7.02  0. 1.0000     0.      0.00 
   2  -5  26     27.73    5.67  0. 1.0000     0.      0.00 
   3  -5  26      0.94    5.18  0. 1.0000     0.      0.00 
   4  -5  26    237.53    6.43  0. 1.0000     0.      0.00 
   5  -5  26    199.96    7.50  0. 1.0000     0.      0.00 
   6  -5  26     42.19    7.13  0. 1.0000     0.      0.00 
   7  -5  26     64.01    8.08  0. 1.0000     0.      0.00 
   8  -5  26     54.46   18.05  0. 1.0000     0.      0.00 
   9  -5  26     10.82   28.69  0. 1.0000     0.      0.00 
  -8  -4  26    217.27   43.32  0. 1.0000     0.      0.00 
  -7  -4  26     24.29    9.75  0. 1.0000     0.      0.00 
  -6  -4  26     10.09   17.46  0. 1.0000     0.      0.00 
  -5  -4  26    600.97   37.37  0. 1.0000     0.      0.00 
  -4  -4  26    218.59   20.75  0. 1.0000     0.      0.00 
  -3  -4  26     38.65   16.19  0. 1.0000     0.      0.00 
  -2  -4  26    319.96    8.81  0. 1.0000     0.      0.00 
  -1  -4  26      3.40    5.25  0. 1.0000     0.      0.00 
   0  -4  26     11.07    4.41  0. 1.0000     0.      0.00 
   1  -4  26    105.64    4.35  0. 1.0000     0.      0.00 
   2  -4  26      1.11    4.25  0. 1.0000     0.      0.00 
   3  -4  26    718.75   11.26  0. 1.0000     0.      0.00 
   4  -4  26    658.09   13.85  0. 1.0000     0.      0.00 
   5  -4  26      0.00   22.56  0. 1.0000     0.      0.00 
   6  -4  26     35.88   14.97  0. 1.0000     0.      0.00 
   7  -4  26     14.13   15.48  0. 1.0000     0.      0.00 
   8  -4  26      0.00   24.39  0. 1.0000     0.      0.00 
   9  -4  26     72.45   12.93  0. 1.0000     0.      0.00 
  -8  -3  26     64.91   36.83  0. 1.0000     0.      0.00 
  -7  -3  26    268.22   40.28  0. 1.0000     0.      0.00 
  -6  -3  26    114.13   13.00  0. 1.0000     0.      0.00 
  -5  -3  26    261.54    9.15  0. 1.0000     0.      0.00 
  -4  -3  26     14.70    5.78  0. 1.0000     0.      0.00 
  -3  -3  26     12.47    5.14  0. 1.0000     0.      0.00 
  -2  -3  26      6.60    4.03  0. 1.0000     0.      0.00 
  -1  -3  26    475.06    7.81  0. 1.0000     0.      0.00 
   0  -3  26     81.01    4.53  0. 1.0000     0.      0.00 
   1  -3  26    321.26    7.03  0. 1.0000     0.      0.00 
   2  -3  26    163.39   25.27  0. 1.0000     0.      0.00 
   5  -3  26     29.63   12.46  0. 1.0000     0.      0.00 
   6  -3  26      1.36    9.17  0. 1.0000     0.      0.00 
   7  -3  26     37.22    7.82  0. 1.0000     0.      0.00 
   8  -3  26    127.52    6.61  0. 1.0000     0.      0.00 
   9  -3  26    163.04    6.41  0. 1.0000     0.      0.00 
  -8  -2  26     23.46    9.83  0. 1.0000     0.      0.00 
  -7  -2  26    172.26    8.34  0. 1.0000     0.      0.00 
  -6  -2  26     41.76    6.49  0. 1.0000     0.      0.00 
  -5  -2  26    113.87    5.09  0. 1.0000     0.      0.00 
  -4  -2  26      5.12    4.77  0. 1.0000     0.      0.00 
  -3  -2  26     16.97    4.47  0. 1.0000     0.      0.00 
  -2  -2  26    618.83    9.74  0. 1.0000     0.      0.00 
  -1  -2  26   1551.22  115.16  0. 1.0000     0.      0.00 
   2  -2  26     79.49   56.15  0. 1.0000     0.      0.00 
   3  -2  26     85.51    7.45  0. 1.0000     0.      0.00 
   4  -2  26    127.66    6.28  0. 1.0000     0.      0.00 
   5  -2  26    145.16    6.04  0. 1.0000     0.      0.00 
   6  -2  26     35.42    4.02  0. 1.0000     0.      0.00 
   7  -2  26    244.50    7.78  0. 1.0000     0.      0.00 
   8  -2  26     54.84    9.00  0. 1.0000     0.      0.00 
   9  -2  26      7.87   12.76  0. 1.0000     0.      0.00 
  -9  -1  26    100.41    8.38  0. 1.0000     0.      0.00 
  -8  -1  26     31.90    5.92  0. 1.0000     0.      0.00 
  -7  -1  26     20.66    5.79  0. 1.0000     0.      0.00 
  -6  -1  26    114.03    6.61  0. 1.0000     0.      0.00 
  -5  -1  26    434.45   10.53  0. 1.0000     0.      0.00 
  -4  -1  26     51.66   17.98  0. 1.0000     0.      0.00 
  -3  -1  26     86.83   38.97  0. 1.0000     0.      0.00 
  -1  -1  26    105.84   44.48  0. 1.0000     0.      0.00 
   0  -1  26      6.25    4.80  0. 1.0000     0.      0.00 
   1  -1  26     29.04    4.05  0. 1.0000     0.      0.00 
   2  -1  26     76.60    4.27  0. 1.0000     0.      0.00 
   3  -1  26      4.28    3.14  0. 1.0000     0.      0.00 
   4  -1  26    398.61    7.74  0. 1.0000     0.      0.00 
   5  -1  26      9.63    7.19  0. 1.0000     0.      0.00 
   6  -1  26    187.53   11.99  0. 1.0000     0.      0.00 
  -9   0  26     68.73    8.65  0. 1.0000     0.      0.00 
  -8   0  26     19.36    9.13  0. 1.0000     0.      0.00 
  -7   0  26     82.30   13.97  0. 1.0000     0.      0.00 
  -6   0  26    913.15   36.71  0. 1.0000     0.      0.00 
  -5   0  26    275.02   37.38  0. 1.0000     0.      0.00 
  -4   0  26    486.38   38.01  0. 1.0000     0.      0.00 
  -3   0  26     75.86    4.87  0. 1.0000     0.      0.00 
  -2   0  26     73.98    6.36  0. 1.0000     0.      0.00 
  -1   0  26    176.94    4.59  0. 1.0000     0.      0.00 
   0   0  26     38.79    3.26  0. 1.0000     0.      0.00 
   1   0  26     12.48    3.84  0. 1.0000     0.      0.00 
   2   0  26   1092.30   14.15  0. 1.0000     0.      0.00 
   3   0  26    116.35    8.22  0. 1.0000     0.      0.00 
   7   0  26      1.55   28.49  0. 1.0000     0.      0.00 
   8   0  26     43.76   13.73  0. 1.0000     0.      0.00 
   9   0  26     38.73    8.31  0. 1.0000     0.      0.00 
  -9   1  26     10.53   27.12  0. 1.0000     0.      0.00 
  -8   1  26    208.80   25.51  0. 1.0000     0.      0.00 
  -7   1  26    103.57   31.57  0. 1.0000     0.      0.00 
  -6   1  26    162.39    7.99  0. 1.0000     0.      0.00 
  -5   1  26     27.58    5.53  0. 1.0000     0.      0.00 
  -4   1  26     53.03    5.02  0. 1.0000     0.      0.00 
  -3   1  26      5.79    3.30  0. 1.0000     0.      0.00 
  -2   1  26    242.22    4.83  0. 1.0000     0.      0.00 
  -1   1  26     71.65    3.92  0. 1.0000     0.      0.00 
   0   1  26     62.41    4.95  0. 1.0000     0.      0.00 
   4   1  26      0.00   30.62  0. 1.0000     0.      0.00 
   5   1  26     60.76   12.04  0. 1.0000     0.      0.00 
   6   1  26      6.98    7.60  0. 1.0000     0.      0.00 
   7   1  26    182.10    7.25  0. 1.0000     0.      0.00 
   8   1  26    127.72    7.38  0. 1.0000     0.      0.00 
  -9   2  26     69.08    9.16  0. 1.0000     0.      0.00 
  -8   2  26    284.86    8.85  0. 1.0000     0.      0.00 
  -7   2  26     14.47    6.23  0. 1.0000     0.      0.00 
  -6   2  26      9.51    5.39  0. 1.0000     0.      0.00 
  -5   2  26     44.12    5.06  0. 1.0000     0.      0.00 
  -4   2  26     57.81    4.88  0. 1.0000     0.      0.00 
  -3   2  26    652.30   12.61  0. 1.0000     0.      0.00 
   2   2  26      0.00   13.57  0. 1.0000     0.      0.00 
   3   2  26     32.91    5.64  0. 1.0000     0.      0.00 
   4   2  26     30.75    5.65  0. 1.0000     0.      0.00 
   5   2  26    153.38    6.42  0. 1.0000     0.      0.00 
   6   2  26     12.56    7.02  0. 1.0000     0.      0.00 
   7   2  26     59.55    9.96  0. 1.0000     0.      0.00 
   8   2  26     11.03   14.34  0. 1.0000     0.      0.00 
  -9   3  26     32.44    6.57  0. 1.0000     0.      0.00 
  -8   3  26      5.35    5.90  0. 1.0000     0.      0.00 
  -7   3  26     95.65    6.83  0. 1.0000     0.      0.00 
  -6   3  26     48.42    8.62  0. 1.0000     0.      0.00 
  -5   3  26    185.95   21.73  0. 1.0000     0.      0.00 
  -4   3  26    145.45   46.47  0. 1.0000     0.      0.00 
  -1   3  26     16.84    8.38  0. 1.0000     0.      0.00 
   0   3  26      0.80    4.38  0. 1.0000     0.      0.00 
   1   3  26     10.15    4.27  0. 1.0000     0.      0.00 
   2   3  26    121.40    5.86  0. 1.0000     0.      0.00 
   3   3  26    190.45    6.84  0. 1.0000     0.      0.00 
   4   3  26      0.00    7.26  0. 1.0000     0.      0.00 
   5   3  26    295.92   15.48  0. 1.0000     0.      0.00 
  -9   4  26     15.95   11.95  0. 1.0000     0.      0.00 
  -8   4  26    219.24   23.95  0. 1.0000     0.      0.00 
  -7   4  26    586.31   31.40  0. 1.0000     0.      0.00 
  -6   4  26     64.15   34.56  0. 1.0000     0.      0.00 
  -5   4  26    325.20   25.34  0. 1.0000     0.      0.00 
  -4   4  26     26.58   12.03  0. 1.0000     0.      0.00 
  -3   4  26     18.22    6.57  0. 1.0000     0.      0.00 
  -2   4  26     83.76    6.09  0. 1.0000     0.      0.00 
  -1   4  26     23.58    3.30  0. 1.0000     0.      0.00 
   0   4  26     34.15    4.15  0. 1.0000     0.      0.00 
   1   4  26    552.46   12.36  0. 1.0000     0.      0.00 
   7   4  26     16.57   13.87  0. 1.0000     0.      0.00 
  -9   5  26     25.00   15.65  0. 1.0000     0.      0.00 
  -8   5  26    160.27   29.37  0. 1.0000     0.      0.00 
  -7   5  26     42.27    9.35  0. 1.0000     0.      0.00 
  -6   5  26     36.29    7.30  0. 1.0000     0.      0.00 
  -5   5  26     38.67    5.29  0. 1.0000     0.      0.00 
  -4   5  26     18.29    4.94  0. 1.0000     0.      0.00 
  -3   5  26      0.00    6.85  0. 1.0000     0.      0.00 
  -2   5  26    194.21    7.18  0. 1.0000     0.      0.00 
  -1   5  26      8.49   14.23  0. 1.0000     0.      0.00 
   4   5  26     22.02   17.39  0. 1.0000     0.      0.00 
   5   5  26     10.58    8.91  0. 1.0000     0.      0.00 
   6   5  26     78.50    8.72  0. 1.0000     0.      0.00 
  -8   6  26     31.17    7.18  0. 1.0000     0.      0.00 
  -7   6  26     60.45    6.93  0. 1.0000     0.      0.00 
  -6   6  26     16.23    5.42  0. 1.0000     0.      0.00 
  -5   6  26      4.46    8.14  0. 1.0000     0.      0.00 
  -4   6  26    423.70   17.78  0. 1.0000     0.      0.00 
   1   6  26     21.79   15.16  0. 1.0000     0.      0.00 
   2   6  26      1.11    8.38  0. 1.0000     0.      0.00 
   3   6  26     13.64    6.45  0. 1.0000     0.      0.00 
   4   6  26     95.19    7.30  0. 1.0000     0.      0.00 
   5   6  26      9.36    8.29  0. 1.0000     0.      0.00 
  -8   7  26     36.22    9.19  0. 1.0000     0.      0.00 
  -7   7  26     16.22   14.41  0. 1.0000     0.      0.00 
  -6   7  26     28.16   21.44  0. 1.0000     0.      0.00 
  -5   7  26    182.72   35.19  0. 1.0000     0.      0.00 
  -4   7  26    584.57   75.83  0. 1.0000     0.      0.00 
  -3   7  26     13.94   37.48  0. 1.0000     0.      0.00 
  -2   7  26     23.07   13.58  0. 1.0000     0.      0.00 
  -1   7  26     55.11   10.81  0. 1.0000     0.      0.00 
   0   7  26     18.01    6.36  0. 1.0000     0.      0.00 
   1   7  26     64.69    6.13  0. 1.0000     0.      0.00 
   2   7  26     53.59    7.24  0. 1.0000     0.      0.00 
   3   7  26      5.43   10.31  0. 1.0000     0.      0.00 
   4   7  26    166.79   31.44  0. 1.0000     0.      0.00 
  -7   8  26     33.23   25.56  0. 1.0000     0.      0.00 
  -6   8  26     76.16   36.76  0. 1.0000     0.      0.00 
  -5   8  26     44.49   15.40  0. 1.0000     0.      0.00 
  -4   8  26      1.49    9.86  0. 1.0000     0.      0.00 
  -3   8  26      5.32    5.95  0. 1.0000     0.      0.00 
  -2   8  26      8.40    4.37  0. 1.0000     0.      0.00 
  -1   8  26     46.72    6.70  0. 1.0000     0.      0.00 
   0   8  26     23.40   12.01  0. 1.0000     0.      0.00 
   1   8  26     57.06   33.87  0. 1.0000     0.      0.00 
  -5   9  26     13.74    5.36  0. 1.0000     0.      0.00 
  -4   9  26     77.85    7.99  0. 1.0000     0.      0.00 
  -3   9  26     73.40   15.83  0. 1.0000     0.      0.00 
  -2   9  26      4.47   18.33  0. 1.0000     0.      0.00 
   1 -10  27    104.87   11.13  0. 1.0000     0.      0.00 
   2 -10  27    116.07   13.47  0. 1.0000     0.      0.00 
   3 -10  27     11.39   14.68  0. 1.0000     0.      0.00 
   4 -10  27     22.82    6.88  0. 1.0000     0.      0.00 
  -2  -9  27    144.10   14.88  0. 1.0000     0.      0.00 
  -1  -9  27      0.00   24.70  0. 1.0000     0.      0.00 
   0  -9  27    272.53   46.14  0. 1.0000     0.      0.00 
   1  -9  27      0.00   17.10  0. 1.0000     0.      0.00 
   2  -9  27      9.15    9.16  0. 1.0000     0.      0.00 
   3  -9  27     13.18    7.36  0. 1.0000     0.      0.00 
   4  -9  27    339.52    7.95  0. 1.0000     0.      0.00 
   5  -9  27     26.72    5.84  0. 1.0000     0.      0.00 
   6  -9  27     50.58    7.92  0. 1.0000     0.      0.00 
  -3  -8  27    128.30   18.83  0. 1.0000     0.      0.00 
  -2  -8  27      0.00   13.95  0. 1.0000     0.      0.00 
  -1  -8  27      0.00    8.63  0. 1.0000     0.      0.00 
   0  -8  27    470.28   10.81  0. 1.0000     0.      0.00 
   1  -8  27     16.21    6.82  0. 1.0000     0.      0.00 
   2  -8  27      8.14    4.93  0. 1.0000     0.      0.00 
   3  -8  27     66.75    6.35  0. 1.0000     0.      0.00 
   4  -8  27    480.69   10.12  0. 1.0000     0.      0.00 
   5  -8  27     62.68    8.41  0. 1.0000     0.      0.00 
   6  -8  27     38.62   16.67  0. 1.0000     0.      0.00 
   7  -8  27      0.00   14.34  0. 1.0000     0.      0.00 
  -5  -7  27      8.14    7.28  0. 1.0000     0.      0.00 
  -4  -7  27    304.01   11.27  0. 1.0000     0.      0.00 
  -3  -7  27    158.15    9.20  0. 1.0000     0.      0.00 
  -2  -7  27     18.84    6.46  0. 1.0000     0.      0.00 
  -1  -7  27     22.38    6.32  0. 1.0000     0.      0.00 
   0  -7  27    495.79   10.93  0. 1.0000     0.      0.00 
   1  -7  27    144.14    7.74  0. 1.0000     0.      0.00 
   2  -7  27     32.49    7.50  0. 1.0000     0.      0.00 
   3  -7  27    250.20   17.61  0. 1.0000     0.      0.00 
   4  -7  27     30.25   17.14  0. 1.0000     0.      0.00 
   5  -7  27     41.67   23.74  0. 1.0000     0.      0.00 
   6  -7  27     17.29   11.66  0. 1.0000     0.      0.00 
   7  -7  27     83.04   10.71  0. 1.0000     0.      0.00 
   8  -7  27     27.34    8.77  0. 1.0000     0.      0.00 
  -6  -6  27     17.66    5.90  0. 1.0000     0.      0.00 
  -5  -6  27     24.26    8.57  0. 1.0000     0.      0.00 
  -4  -6  27    251.01    8.85  0. 1.0000     0.      0.00 
  -3  -6  27    144.53    7.74  0. 1.0000     0.      0.00 
  -2  -6  27      7.18    7.80  0. 1.0000     0.      0.00 
  -1  -6  27    354.92   11.15  0. 1.0000     0.      0.00 
   0  -6  27     14.68   14.86  0. 1.0000     0.      0.00 
   1  -6  27    192.49   18.48  0. 1.0000     0.      0.00 
   2  -6  27     76.38   18.86  0. 1.0000     0.      0.00 
   3  -6  27    408.62   27.52  0. 1.0000     0.      0.00 
   4  -6  27      0.00    8.34  0. 1.0000     0.      0.00 
   5  -6  27     16.05    6.74  0. 1.0000     0.      0.00 
   6  -6  27     11.28    5.84  0. 1.0000     0.      0.00 
   7  -6  27    727.04   11.75  0. 1.0000     0.      0.00 
   8  -6  27      4.50    7.64  0. 1.0000     0.      0.00 
  -6  -5  27     16.19    7.62  0. 1.0000     0.      0.00 
  -5  -5  27    107.62    8.49  0. 1.0000     0.      0.00 
  -4  -5  27      7.96    8.34  0. 1.0000     0.      0.00 
  -3  -5  27    244.28   20.28  0. 1.0000     0.      0.00 
  -2  -5  27      0.00   18.06  0. 1.0000     0.      0.00 
  -1  -5  27    658.36   77.66  0. 1.0000     0.      0.00 
   0  -5  27    331.28   24.46  0. 1.0000     0.      0.00 
   1  -5  27      9.42    7.29  0. 1.0000     0.      0.00 
   2  -5  27      3.31    6.34  0. 1.0000     0.      0.00 
   3  -5  27    888.36   13.65  0. 1.0000     0.      0.00 
   4  -5  27    103.48    5.64  0. 1.0000     0.      0.00 
   5  -5  27     14.36    5.97  0. 1.0000     0.      0.00 
   6  -5  27    218.57    8.50  0. 1.0000     0.      0.00 
   7  -5  27    214.23    9.78  0. 1.0000     0.      0.00 
   8  -5  27      0.00   23.02  0. 1.0000     0.      0.00 
  -7  -4  27     47.83   11.00  0. 1.0000     0.      0.00 
  -6  -4  27     23.29   20.35  0. 1.0000     0.      0.00 
  -5  -4  27    279.65   27.61  0. 1.0000     0.      0.00 
  -4  -4  27    659.83   31.79  0. 1.0000     0.      0.00 
  -3  -4  27      0.57   15.32  0. 1.0000     0.      0.00 
  -2  -4  27     37.67   27.22  0. 1.0000     0.      0.00 
  -1  -4  27    491.73   13.96  0. 1.0000     0.      0.00 
   0  -4  27    143.74    6.89  0. 1.0000     0.      0.00 
   1  -4  27     31.37    5.54  0. 1.0000     0.      0.00 
   2  -4  27    380.68    9.12  0. 1.0000     0.      0.00 
   3  -4  27    408.79   10.12  0. 1.0000     0.      0.00 
   4  -4  27    156.03    8.93  0. 1.0000     0.      0.00 
   5  -4  27     13.05   20.27  0. 1.0000     0.      0.00 
   6  -4  27    177.91   21.19  0. 1.0000     0.      0.00 
   7  -4  27      0.00   23.25  0. 1.0000     0.      0.00 
   8  -4  27     15.06   17.52  0. 1.0000     0.      0.00 
   9  -4  27     21.65    6.77  0. 1.0000     0.      0.00 
  -8  -3  27    252.19   49.61  0. 1.0000     0.      0.00 
  -7  -3  27    184.31   39.48  0. 1.0000     0.      0.00 
  -6  -3  27     94.47   13.81  0. 1.0000     0.      0.00 
  -5  -3  27     30.59    8.76  0. 1.0000     0.      0.00 
  -4  -3  27    184.29    7.65  0. 1.0000     0.      0.00 
  -3  -3  27     32.98    6.47  0. 1.0000     0.      0.00 
  -2  -3  27    193.02    6.68  0. 1.0000     0.      0.00 
  -1  -3  27    150.02    5.76  0. 1.0000     0.      0.00 
   0  -3  27    282.77    7.01  0. 1.0000     0.      0.00 
   1  -3  27     11.04    5.60  0. 1.0000     0.      0.00 
   2  -3  27    804.28   76.76  0. 1.0000     0.      0.00 
   5  -3  27     68.22   26.19  0. 1.0000     0.      0.00 
   6  -3  27    331.62   13.24  0. 1.0000     0.      0.00 
   7  -3  27    102.08    8.54  0. 1.0000     0.      0.00 
   8  -3  27     22.09    6.72  0. 1.0000     0.      0.00 
   9  -3  27     24.98    6.24  0. 1.0000     0.      0.00 
  -8  -2  27     84.76   10.79  0. 1.0000     0.      0.00 
  -7  -2  27     16.35    8.14  0. 1.0000     0.      0.00 
  -6  -2  27    282.37    8.75  0. 1.0000     0.      0.00 
  -5  -2  27     26.67    6.04  0. 1.0000     0.      0.00 
  -4  -2  27     27.05    5.50  0. 1.0000     0.      0.00 
  -3  -2  27     30.24    5.92  0. 1.0000     0.      0.00 
  -2  -2  27    657.12   11.83  0. 1.0000     0.      0.00 
  -1  -2  27    264.85   41.94  0. 1.0000     0.      0.00 
   3  -2  27    349.62   15.13  0. 1.0000     0.      0.00 
   4  -2  27     13.95    6.32  0. 1.0000     0.      0.00 
   5  -2  27     42.22    5.30  0. 1.0000     0.      0.00 
   6  -2  27    813.64   13.11  0. 1.0000     0.      0.00 
   7  -2  27     71.90    6.51  0. 1.0000     0.      0.00 
   8  -2  27     16.55    9.23  0. 1.0000     0.      0.00 
   9  -2  27    136.57   14.95  0. 1.0000     0.      0.00 
  -8  -1  27     15.76    6.50  0. 1.0000     0.      0.00 
  -7  -1  27     14.13    6.09  0. 1.0000     0.      0.00 
  -6  -1  27    291.45    9.80  0. 1.0000     0.      0.00 
  -5  -1  27    253.18    9.28  0. 1.0000     0.      0.00 
  -4  -1  27     98.85   15.97  0. 1.0000     0.      0.00 
   0  -1  27     24.63    5.57  0. 1.0000     0.      0.00 
   1  -1  27     52.61    4.71  0. 1.0000     0.      0.00 
   2  -1  27    165.98    5.43  0. 1.0000     0.      0.00 
   3  -1  27    216.08    8.16  0. 1.0000     0.      0.00 
   4  -1  27     12.02    5.61  0. 1.0000     0.      0.00 
   5  -1  27    545.76   15.62  0. 1.0000     0.      0.00 
   6  -1  27    139.24   13.08  0. 1.0000     0.      0.00 
   7  -1  27      0.00   43.49  0. 1.0000     0.      0.00 
  -9   0  27    132.54   14.10  0. 1.0000     0.      0.00 
  -8   0  27     22.91    9.70  0. 1.0000     0.      0.00 
  -7   0  27     56.16   14.78  0. 1.0000     0.      0.00 
  -6   0  27     56.43   19.98  0. 1.0000     0.      0.00 
  -5   0  27    761.64   57.05  0. 1.0000     0.      0.00 
  -4   0  27      0.00   57.96  0. 1.0000     0.      0.00 
  -3   0  27    232.17    7.76  0. 1.0000     0.      0.00 
  -2   0  27     36.04    4.69  0. 1.0000     0.      0.00 
  -1   0  27     69.65    6.51  0. 1.0000     0.      0.00 
   0   0  27     16.32    3.41  0. 1.0000     0.      0.00 
   1   0  27    940.59   13.11  0. 1.0000     0.      0.00 
   2   0  27     12.63    4.82  0. 1.0000     0.      0.00 
   3   0  27    157.51   14.31  0. 1.0000     0.      0.00 
   7   0  27     60.16   44.42  0. 1.0000     0.      0.00 
   8   0  27      8.74   18.14  0. 1.0000     0.      0.00 
  -9   1  27    340.47   34.99  0. 1.0000     0.      0.00 
  -8   1  27     55.84   21.52  0. 1.0000     0.      0.00 
  -7   1  27    266.65   17.68  0. 1.0000     0.      0.00 
  -6   1  27    326.15    9.16  0. 1.0000     0.      0.00 
  -5   1  27     93.83    7.24  0. 1.0000     0.      0.00 
  -4   1  27     10.90    5.14  0. 1.0000     0.      0.00 
  -3   1  27    581.45    9.40  0. 1.0000     0.      0.00 
  -2   1  27    105.05    4.35  0. 1.0000     0.      0.00 
  -1   1  27     59.94    4.36  0. 1.0000     0.      0.00 
   0   1  27    139.48    7.51  0. 1.0000     0.      0.00 
   5   1  27     30.08   12.99  0. 1.0000     0.      0.00 
   6   1  27    187.18    8.19  0. 1.0000     0.      0.00 
   7   1  27     19.75    6.78  0. 1.0000     0.      0.00 
   8   1  27     98.08    7.93  0. 1.0000     0.      0.00 
  -9   2  27     55.16    7.44  0. 1.0000     0.      0.00 
  -8   2  27      5.78    7.97  0. 1.0000     0.      0.00 
  -7   2  27    199.39    7.35  0. 1.0000     0.      0.00 
  -6   2  27    367.07    9.60  0. 1.0000     0.      0.00 
  -5   2  27     30.45    4.91  0. 1.0000     0.      0.00 
  -4   2  27     28.44    5.74  0. 1.0000     0.      0.00 
  -3   2  27    486.74   13.55  0. 1.0000     0.      0.00 
   2   2  27    106.26   16.06  0. 1.0000     0.      0.00 
   3   2  27      8.12    6.30  0. 1.0000     0.      0.00 
   4   2  27    315.87    8.29  0. 1.0000     0.      0.00 
   5   2  27     52.91    6.94  0. 1.0000     0.      0.00 
   6   2  27     63.11    7.54  0. 1.0000     0.      0.00 
   7   2  27     10.31   11.27  0. 1.0000     0.      0.00 
  -9   3  27     23.70    6.82  0. 1.0000     0.      0.00 
  -8   3  27     14.19    6.12  0. 1.0000     0.      0.00 
  -7   3  27     64.11    7.08  0. 1.0000     0.      0.00 
  -6   3  27    336.00   12.64  0. 1.0000     0.      0.00 
  -5   3  27      0.00   29.98  0. 1.0000     0.      0.00 
  -4   3  27    528.47   78.12  0. 1.0000     0.      0.00 
  -1   3  27     72.34   13.03  0. 1.0000     0.      0.00 
   0   3  27    247.88    7.99  0. 1.0000     0.      0.00 
   1   3  27    156.46    7.27  0. 1.0000     0.      0.00 
   2   3  27     28.42    5.08  0. 1.0000     0.      0.00 
   3   3  27      3.10    5.50  0. 1.0000     0.      0.00 
   4   3  27    765.73   16.72  0. 1.0000     0.      0.00 
   5   3  27     69.06   15.11  0. 1.0000     0.      0.00 
  -9   4  27     80.35   66.21  0. 1.0000     0.      0.00 
  -8   4  27     49.06   18.82  0. 1.0000     0.      0.00 
  -7   4  27     90.90   20.96  0. 1.0000     0.      0.00 
  -6   4  27    322.37   32.01  0. 1.0000     0.      0.00 
  -5   4  27    169.76   35.23  0. 1.0000     0.      0.00 
  -4   4  27    222.39   13.22  0. 1.0000     0.      0.00 
  -3   4  27    538.12   12.09  0. 1.0000     0.      0.00 
  -2   4  27      4.16    5.15  0. 1.0000     0.      0.00 
  -1   4  27     10.61    3.71  0. 1.0000     0.      0.00 
   0   4  27    671.82   11.95  0. 1.0000     0.      0.00 
   1   4  27     99.56    8.69  0. 1.0000     0.      0.00 
   2   4  27      0.00   28.46  0. 1.0000     0.      0.00 
  -8   5  27     69.23   21.53  0. 1.0000     0.      0.00 
  -7   5  27    431.25   13.04  0. 1.0000     0.      0.00 
  -6   5  27     13.23    7.25  0. 1.0000     0.      0.00 
  -5   5  27      8.67    5.40  0. 1.0000     0.      0.00 
  -4   5  27    112.53    5.49  0. 1.0000     0.      0.00 
  -3   5  27    284.37    7.68  0. 1.0000     0.      0.00 
  -2   5  27      3.14    6.81  0. 1.0000     0.      0.00 
  -1   5  27    315.76   23.65  0. 1.0000     0.      0.00 
   4   5  27    101.56   20.17  0. 1.0000     0.      0.00 
   5   5  27     58.91   10.29  0. 1.0000     0.      0.00 
  -8   6  27     28.15    5.57  0. 1.0000     0.      0.00 
  -7   6  27    108.31    5.97  0. 1.0000     0.      0.00 
  -6   6  27     13.03    5.88  0. 1.0000     0.      0.00 
  -5   6  27    141.53   10.20  0. 1.0000     0.      0.00 
  -4   6  27      0.00   13.25  0. 1.0000     0.      0.00 
   1   6  27     57.70   15.54  0. 1.0000     0.      0.00 
   2   6  27      3.63    8.09  0. 1.0000     0.      0.00 
   3   6  27    192.71    8.60  0. 1.0000     0.      0.00 
   4   6  27     60.21    7.37  0. 1.0000     0.      0.00 
  -7   7  27     29.37   15.60  0. 1.0000     0.      0.00 
  -6   7  27      0.63   23.53  0. 1.0000     0.      0.00 
  -5   7  27    192.50   37.72  0. 1.0000     0.      0.00 
  -4   7  27    197.43   66.51  0. 1.0000     0.      0.00 
  -3   7  27    125.63   62.93  0. 1.0000     0.      0.00 
  -2   7  27     20.23   14.30  0. 1.0000     0.      0.00 
  -1   7  27      0.00   11.09  0. 1.0000     0.      0.00 
   0   7  27    340.86   10.31  0. 1.0000     0.      0.00 
   1   7  27      8.98    5.92  0. 1.0000     0.      0.00 
   2   7  27     37.26    7.31  0. 1.0000     0.      0.00 
   3   7  27    288.54   12.14  0. 1.0000     0.      0.00 
  -6   8  27     30.66   31.55  0. 1.0000     0.      0.00 
  -5   8  27     21.97   15.51  0. 1.0000     0.      0.00 
  -4   8  27    308.10   13.75  0. 1.0000     0.      0.00 
  -3   8  27      5.74    6.72  0. 1.0000     0.      0.00 
  -2   8  27     34.55    5.17  0. 1.0000     0.      0.00 
  -1   8  27     43.35    6.98  0. 1.0000     0.      0.00 
   0   8  27    151.54   12.29  0. 1.0000     0.      0.00 
   1   8  27     13.62   34.37  0. 1.0000     0.      0.00 
  -1  -9  28      0.00   10.63  0. 1.0000     0.      0.00 
   0  -9  28      0.00   22.93  0. 1.0000     0.      0.00 
   1  -9  28    376.05   19.72  0. 1.0000     0.      0.00 
   2  -9  28     10.06   10.65  0. 1.0000     0.      0.00 
   3  -9  28      9.28    8.72  0. 1.0000     0.      0.00 
   4  -9  28    112.39    7.06  0. 1.0000     0.      0.00 
   5  -9  28     79.68    6.56  0. 1.0000     0.      0.00 
  -3  -8  28    133.61   16.67  0. 1.0000     0.      0.00 
  -2  -8  28      0.00   15.11  0. 1.0000     0.      0.00 
  -1  -8  28     17.08    9.61  0. 1.0000     0.      0.00 
   0  -8  28     14.29    8.15  0. 1.0000     0.      0.00 
   1  -8  28    402.01   10.13  0. 1.0000     0.      0.00 
   2  -8  28     11.59    6.24  0. 1.0000     0.      0.00 
   3  -8  28    153.66    7.12  0. 1.0000     0.      0.00 
   4  -8  28     11.68    7.46  0. 1.0000     0.      0.00 
   5  -8  28     13.25    8.99  0. 1.0000     0.      0.00 
   6  -8  28     21.56   13.35  0. 1.0000     0.      0.00 
  -4  -7  28    168.73   11.98  0. 1.0000     0.      0.00 
  -3  -7  28     48.69    9.14  0. 1.0000     0.      0.00 
  -2  -7  28     31.01    7.32  0. 1.0000     0.      0.00 
  -1  -7  28    139.21    7.30  0. 1.0000     0.      0.00 
   0  -7  28     10.58    6.79  0. 1.0000     0.      0.00 
   1  -7  28     58.35    7.47  0. 1.0000     0.      0.00 
   2  -7  28     64.43    8.58  0. 1.0000     0.      0.00 
   3  -7  28     44.01   13.44  0. 1.0000     0.      0.00 
   4  -7  28    257.35   18.60  0. 1.0000     0.      0.00 
   5  -7  28      0.00   18.98  0. 1.0000     0.      0.00 
   6  -7  28     15.93   12.22  0. 1.0000     0.      0.00 
   7  -7  28    118.75   12.35  0. 1.0000     0.      0.00 
  -5  -6  28     22.82    8.86  0. 1.0000     0.      0.00 
  -4  -6  28    189.20    8.93  0. 1.0000     0.      0.00 
  -3  -6  28     38.82    7.11  0. 1.0000     0.      0.00 
  -2  -6  28     82.58    7.38  0. 1.0000     0.      0.00 
  -1  -6  28     19.52    7.98  0. 1.0000     0.      0.00 
   0  -6  28    116.71   25.80  0. 1.0000     0.      0.00 
   1  -6  28     53.64   18.56  0. 1.0000     0.      0.00 
   2  -6  28     25.23   18.71  0. 1.0000     0.      0.00 
   3  -6  28     46.48   16.85  0. 1.0000     0.      0.00 
   4  -6  28    364.63   13.11  0. 1.0000     0.      0.00 
   5  -6  28      0.00    7.18  0. 1.0000     0.      0.00 
   6  -6  28     27.82    6.13  0. 1.0000     0.      0.00 
   7  -6  28      1.83    5.79  0. 1.0000     0.      0.00 
   8  -6  28     64.54   10.14  0. 1.0000     0.      0.00 
  -6  -5  28     41.49    8.40  0. 1.0000     0.      0.00 
  -5  -5  28     36.97    8.49  0. 1.0000     0.      0.00 
  -4  -5  28    144.43    9.23  0. 1.0000     0.      0.00 
  -3  -5  28      4.52   23.75  0. 1.0000     0.      0.00 
  -2  -5  28     35.75   22.84  0. 1.0000     0.      0.00 
  -1  -5  28    250.00   21.57  0. 1.0000     0.      0.00 
   0  -5  28    186.16   24.21  0. 1.0000     0.      0.00 
   1  -5  28      1.98   10.10  0. 1.0000     0.      0.00 
   2  -5  28     55.36    6.37  0. 1.0000     0.      0.00 
   3  -5  28      0.00    5.81  0. 1.0000     0.      0.00 
   4  -5  28    246.05    7.25  0. 1.0000     0.      0.00 
   5  -5  28     27.60    6.05  0. 1.0000     0.      0.00 
   6  -5  28     77.39    7.74  0. 1.0000     0.      0.00 
   7  -5  28    118.86   12.35  0. 1.0000     0.      0.00 
   8  -5  28      4.66   14.59  0. 1.0000     0.      0.00 
  -7  -4  28     31.47   29.94  0. 1.0000     0.      0.00 
  -6  -4  28     90.92   22.37  0. 1.0000     0.      0.00 
  -5  -4  28     21.33   26.50  0. 1.0000     0.      0.00 
  -4  -4  28      3.91   35.16  0. 1.0000     0.      0.00 
  -3  -4  28      0.00   24.38  0. 1.0000     0.      0.00 
  -2  -4  28     18.00    8.22  0. 1.0000     0.      0.00 
  -1  -4  28    675.30   14.44  0. 1.0000     0.      0.00 
   0  -4  28    198.98    9.82  0. 1.0000     0.      0.00 
   1  -4  28      6.37    5.11  0. 1.0000     0.      0.00 
   2  -4  28    183.64    6.29  0. 1.0000     0.      0.00 
   3  -4  28    140.11    7.96  0. 1.0000     0.      0.00 
   4  -4  28      0.00    9.69  0. 1.0000     0.      0.00 
   5  -4  28     94.06   18.31  0. 1.0000     0.      0.00 
   7  -4  28    136.89   23.38  0. 1.0000     0.      0.00 
   8  -4  28     26.28   18.90  0. 1.0000     0.      0.00 
  -7  -3  28     39.40   36.80  0. 1.0000     0.      0.00 
  -6  -3  28      0.00   14.28  0. 1.0000     0.      0.00 
  -5  -3  28    615.85   13.22  0. 1.0000     0.      0.00 
  -4  -3  28    111.66    9.70  0. 1.0000     0.      0.00 
  -3  -3  28     11.38    6.51  0. 1.0000     0.      0.00 
  -2  -3  28    122.49    6.78  0. 1.0000     0.      0.00 
  -1  -3  28    453.48   11.16  0. 1.0000     0.      0.00 
   0  -3  28     23.78    7.97  0. 1.0000     0.      0.00 
   1  -3  28    124.00    8.95  0. 1.0000     0.      0.00 
   5  -3  28     58.88   17.93  0. 1.0000     0.      0.00 
   6  -3  28      0.00    9.91  0. 1.0000     0.      0.00 
   7  -3  28    175.97    9.29  0. 1.0000     0.      0.00 
   8  -3  28     15.10    7.14  0. 1.0000     0.      0.00 
  -8  -2  28      0.41   38.77  0. 1.0000     0.      0.00 
  -7  -2  28     22.65    8.38  0. 1.0000     0.      0.00 
  -6  -2  28     36.15    7.21  0. 1.0000     0.      0.00 
  -5  -2  28    488.68   11.08  0. 1.0000     0.      0.00 
  -4  -2  28     34.61    6.47  0. 1.0000     0.      0.00 
  -3  -2  28     48.79    6.46  0. 1.0000     0.      0.00 
  -2  -2  28      2.06    8.57  0. 1.0000     0.      0.00 
  -1  -2  28    159.86   40.08  0. 1.0000     0.      0.00 
   3  -2  28     68.06   10.12  0. 1.0000     0.      0.00 
   4  -2  28     30.24    7.12  0. 1.0000     0.      0.00 
   5  -2  28    151.44    6.70  0. 1.0000     0.      0.00 
   6  -2  28    103.40    6.02  0. 1.0000     0.      0.00 
   7  -2  28     57.96    7.67  0. 1.0000     0.      0.00 
   8  -2  28     53.78   10.37  0. 1.0000     0.      0.00 
  -8  -1  28     78.14    8.19  0. 1.0000     0.      0.00 
  -7  -1  28     15.19    6.89  0. 1.0000     0.      0.00 
  -6  -1  28     38.36    7.16  0. 1.0000     0.      0.00 
  -5  -1  28    180.87   10.49  0. 1.0000     0.      0.00 
  -4  -1  28     22.69   23.41  0. 1.0000     0.      0.00 
   0  -1  28     17.10    8.38  0. 1.0000     0.      0.00 
   1  -1  28    127.76    6.89  0. 1.0000     0.      0.00 
   2  -1  28    591.43   16.31  0. 1.0000     0.      0.00 
   3  -1  28     39.96    5.16  0. 1.0000     0.      0.00 
   4  -1  28     27.65    6.35  0. 1.0000     0.      0.00 
   5  -1  28     25.17    8.37  0. 1.0000     0.      0.00 
   6  -1  28    252.14   14.70  0. 1.0000     0.      0.00 
  -8   0  28     39.84   10.29  0. 1.0000     0.      0.00 
  -7   0  28     44.20   18.49  0. 1.0000     0.      0.00 
  -6   0  28    130.75   22.63  0. 1.0000     0.      0.00 
  -5   0  28     14.86   28.96  0. 1.0000     0.      0.00 
  -4   0  28     14.35   49.31  0. 1.0000     0.      0.00 
  -3   0  28     18.77    8.32  0. 1.0000     0.      0.00 
  -2   0  28   1077.47   20.38  0. 1.0000     0.      0.00 
  -1   0  28     10.19    5.47  0. 1.0000     0.      0.00 
   0   0  28     14.46    4.83  0. 1.0000     0.      0.00 
   1   0  28    105.19    5.58  0. 1.0000     0.      0.00 
   2   0  28    452.09   16.62  0. 1.0000     0.      0.00 
   3   0  28     26.36   13.81  0. 1.0000     0.      0.00 
   8   0  28    122.81   12.10  0. 1.0000     0.      0.00 
  -8   1  28      0.00   26.13  0. 1.0000     0.      0.00 
  -7   1  28    149.92   27.49  0. 1.0000     0.      0.00 
  -6   1  28    236.60    9.65  0. 1.0000     0.      0.00 
  -5   1  28     47.71    6.45  0. 1.0000     0.      0.00 
  -4   1  28      4.99    5.53  0. 1.0000     0.      0.00 
  -3   1  28     16.12    4.60  0. 1.0000     0.      0.00 
  -2   1  28    534.00   12.01  0. 1.0000     0.      0.00 
  -1   1  28      0.00    5.94  0. 1.0000     0.      0.00 
   0   1  28     14.65   15.26  0. 1.0000     0.      0.00 
   5   1  28    232.62   15.03  0. 1.0000     0.      0.00 
   6   1  28     16.00    7.98  0. 1.0000     0.      0.00 
   7   1  28     11.15    7.59  0. 1.0000     0.      0.00 
  -8   2  28     11.69    7.49  0. 1.0000     0.      0.00 
  -7   2  28    291.91    8.63  0. 1.0000     0.      0.00 
  -6   2  28     98.18    5.59  0. 1.0000     0.      0.00 
  -5   2  28     10.06    5.60  0. 1.0000     0.      0.00 
  -4   2  28     61.93    6.03  0. 1.0000     0.      0.00 
  -3   2  28     34.83   11.97  0. 1.0000     0.      0.00 
   2   2  28      0.00   17.60  0. 1.0000     0.      0.00 
   3   2  28     33.39    7.09  0. 1.0000     0.      0.00 
   4   2  28    126.17    7.47  0. 1.0000     0.      0.00 
   5   2  28    339.48    8.59  0. 1.0000     0.      0.00 
   6   2  28     13.19    8.02  0. 1.0000     0.      0.00 
   7   2  28     32.14   11.34  0. 1.0000     0.      0.00 
  -8   3  28     13.14    6.64  0. 1.0000     0.      0.00 
  -7   3  28    181.76    8.30  0. 1.0000     0.      0.00 
  -6   3  28     20.03    9.92  0. 1.0000     0.      0.00 
  -5   3  28     51.63   30.79  0. 1.0000     0.      0.00 
  -1   3  28     34.54   12.89  0. 1.0000     0.      0.00 
   0   3  28     21.18    5.63  0. 1.0000     0.      0.00 
   1   3  28    502.56   10.55  0. 1.0000     0.      0.00 
   2   3  28      5.91    4.93  0. 1.0000     0.      0.00 
   3   3  28     15.30    5.88  0. 1.0000     0.      0.00 
   4   3  28     24.52    8.54  0. 1.0000     0.      0.00 
   5   3  28    167.05   19.67  0. 1.0000     0.      0.00 
  -8   4  28     39.01   15.76  0. 1.0000     0.      0.00 
  -7   4  28     38.62   23.57  0. 1.0000     0.      0.00 
  -6   4  28      0.00   40.77  0. 1.0000     0.      0.00 
  -5   4  28     56.57   34.36  0. 1.0000     0.      0.00 
  -4   4  28    333.24   14.00  0. 1.0000     0.      0.00 
  -3   4  28    141.65    7.35  0. 1.0000     0.      0.00 
  -2   4  28      8.85    5.27  0. 1.0000     0.      0.00 
  -1   4  28     17.31    4.59  0. 1.0000     0.      0.00 
   0   4  28     45.78    5.39  0. 1.0000     0.      0.00 
   1   4  28    153.11    7.50  0. 1.0000     0.      0.00 
   2   4  28     49.21   33.18  0. 1.0000     0.      0.00 
  -8   5  28     95.22   35.97  0. 1.0000     0.      0.00 
  -7   5  28     17.49   10.23  0. 1.0000     0.      0.00 
  -6   5  28     25.78    7.26  0. 1.0000     0.      0.00 
  -5   5  28     18.18    5.76  0. 1.0000     0.      0.00 
  -4   5  28    384.29    7.29  0. 1.0000     0.      0.00 
  -3   5  28     31.13    5.39  0. 1.0000     0.      0.00 
  -2   5  28     18.23    6.68  0. 1.0000     0.      0.00 
  -1   5  28     15.25   18.95  0. 1.0000     0.      0.00 
   4   5  28    128.90   38.47  0. 1.0000     0.      0.00 
   5   5  28     11.55    7.14  0. 1.0000     0.      0.00 
  -7   6  28     18.48    5.74  0. 1.0000     0.      0.00 
  -6   6  28     16.22    6.52  0. 1.0000     0.      0.00 
  -5   6  28     69.54   11.24  0. 1.0000     0.      0.00 
  -4   6  28    221.59   16.47  0. 1.0000     0.      0.00 
   1   6  28      0.00   19.27  0. 1.0000     0.      0.00 
   2   6  28     26.69    9.34  0. 1.0000     0.      0.00 
   3   6  28      0.00    8.48  0. 1.0000     0.      0.00 
   4   6  28    119.75   12.03  0. 1.0000     0.      0.00 
  -6   7  28     44.65   21.24  0. 1.0000     0.      0.00 
  -5   7  28     21.53   66.31  0. 1.0000     0.      0.00 
  -4   7  28     91.69   65.96  0. 1.0000     0.      0.00 
  -2   7  28     73.72   15.13  0. 1.0000     0.      0.00 
  -1   7  28    324.42   14.74  0. 1.0000     0.      0.00 
   0   7  28      8.65    8.13  0. 1.0000     0.      0.00 
   1   7  28     11.51    6.49  0. 1.0000     0.      0.00 
   2   7  28     43.12    8.11  0. 1.0000     0.      0.00 
  -4   8  28     25.32   12.14  0. 1.0000     0.      0.00 
  -3   8  28     10.20    6.70  0. 1.0000     0.      0.00 
  -2   8  28     27.25    5.14  0. 1.0000     0.      0.00 
  -1   8  28    196.64    8.01  0. 1.0000     0.      0.00 
   0   8  28     12.86   11.67  0. 1.0000     0.      0.00 
   1  -9  29      6.09    9.33  0. 1.0000     0.      0.00 
   2  -9  29     37.48    8.89  0. 1.0000     0.      0.00 
   3  -9  29     16.38    5.58  0. 1.0000     0.      0.00 
  -2  -8  29     25.68    7.54  0. 1.0000     0.      0.00 
  -1  -8  29     31.46   10.15  0. 1.0000     0.      0.00 
   0  -8  29      7.19    8.69  0. 1.0000     0.      0.00 
   1  -8  29      4.30    7.44  0. 1.0000     0.      0.00 
   2  -8  29    185.40    7.99  0. 1.0000     0.      0.00 
   3  -8  29     13.27    7.66  0. 1.0000     0.      0.00 
   4  -8  29      0.00    7.92  0. 1.0000     0.      0.00 
   5  -8  29     12.05    9.68  0. 1.0000     0.      0.00 
  -3  -7  29     58.91   10.27  0. 1.0000     0.      0.00 
  -2  -7  29     38.48    7.73  0. 1.0000     0.      0.00 
  -1  -7  29      6.96    6.92  0. 1.0000     0.      0.00 
   0  -7  29     38.33    7.81  0. 1.0000     0.      0.00 
   1  -7  29     64.61    7.85  0. 1.0000     0.      0.00 
   2  -7  29      7.53    9.60  0. 1.0000     0.      0.00 
   3  -7  29    208.25   31.92  0. 1.0000     0.      0.00 
   4  -7  29      0.52   16.72  0. 1.0000     0.      0.00 
   5  -7  29     25.87   16.02  0. 1.0000     0.      0.00 
   6  -7  29      0.28   14.07  0. 1.0000     0.      0.00 
  -4  -6  29      9.60    8.35  0. 1.0000     0.      0.00 
  -3  -6  29     49.31    7.88  0. 1.0000     0.      0.00 
  -2  -6  29     78.80    7.77  0. 1.0000     0.      0.00 
  -1  -6  29     11.44    8.77  0. 1.0000     0.      0.00 
   0  -6  29     50.20   19.99  0. 1.0000     0.      0.00 
   1  -6  29     46.57   22.91  0. 1.0000     0.      0.00 
   2  -6  29    267.86   22.07  0. 1.0000     0.      0.00 
   3  -6  29    263.94   32.89  0. 1.0000     0.      0.00 
   4  -6  29     35.43    9.93  0. 1.0000     0.      0.00 
   5  -6  29     31.79    8.31  0. 1.0000     0.      0.00 
   6  -6  29     28.66    6.59  0. 1.0000     0.      0.00 
   7  -6  29     16.00    6.07  0. 1.0000     0.      0.00 
  -5  -5  29     18.26    9.62  0. 1.0000     0.      0.00 
  -4  -5  29    166.32   10.28  0. 1.0000     0.      0.00 
  -3  -5  29     18.09   22.08  0. 1.0000     0.      0.00 
  -2  -5  29    130.94   26.55  0. 1.0000     0.      0.00 
  -1  -5  29     62.42   41.62  0. 1.0000     0.      0.00 
   0  -5  29     39.53   28.97  0. 1.0000     0.      0.00 
   1  -5  29     11.38    8.81  0. 1.0000     0.      0.00 
   2  -5  29      1.56    7.05  0. 1.0000     0.      0.00 
   3  -5  29     54.08    6.78  0. 1.0000     0.      0.00 
   4  -5  29      0.00    6.54  0. 1.0000     0.      0.00 
   5  -5  29     56.54    6.55  0. 1.0000     0.      0.00 
   6  -5  29     42.37    8.65  0. 1.0000     0.      0.00 
   7  -5  29     19.80   13.59  0. 1.0000     0.      0.00 
  -6  -4  29     21.91   27.39  0. 1.0000     0.      0.00 
  -5  -4  29     10.23   36.71  0. 1.0000     0.      0.00 
  -4  -4  29    108.42   37.65  0. 1.0000     0.      0.00 
  -3  -4  29     92.81   44.79  0. 1.0000     0.      0.00 
  -2  -4  29    150.62    9.30  0. 1.0000     0.      0.00 
  -1  -4  29     25.86    6.74  0. 1.0000     0.      0.00 
   0  -4  29     68.04    7.24  0. 1.0000     0.      0.00 
   1  -4  29    167.99    6.74  0. 1.0000     0.      0.00 
   2  -4  29     35.40    5.74  0. 1.0000     0.      0.00 
   3  -4  29      0.00    6.89  0. 1.0000     0.      0.00 
   4  -4  29     33.61   11.43  0. 1.0000     0.      0.00 
   5  -4  29     38.87   26.30  0. 1.0000     0.      0.00 
   6  -4  29    389.10   38.42  0. 1.0000     0.      0.00 
   7  -4  29     55.83   27.76  0. 1.0000     0.      0.00 
  -7  -3  29      9.34   37.05  0. 1.0000     0.      0.00 
  -6  -3  29     28.10   19.73  0. 1.0000     0.      0.00 
  -5  -3  29     69.94    9.30  0. 1.0000     0.      0.00 
  -4  -3  29     46.18    7.65  0. 1.0000     0.      0.00 
  -3  -3  29     12.88    6.83  0. 1.0000     0.      0.00 
  -2  -3  29      7.78    5.52  0. 1.0000     0.      0.00 
  -1  -3  29    106.63    8.17  0. 1.0000     0.      0.00 
   0  -3  29     56.02    6.96  0. 1.0000     0.      0.00 
   1  -3  29     29.45    8.12  0. 1.0000     0.      0.00 
   5  -3  29      0.00   28.66  0. 1.0000     0.      0.00 
   6  -3  29    243.80   12.50  0. 1.0000     0.      0.00 
   7  -3  29     43.12    8.37  0. 1.0000     0.      0.00 
   8  -3  29     17.92    6.47  0. 1.0000     0.      0.00 
  -7  -2  29     28.25    9.55  0. 1.0000     0.      0.00 
  -6  -2  29     17.06    7.50  0. 1.0000     0.      0.00 
  -5  -2  29     90.78    7.70  0. 1.0000     0.      0.00 
  -4  -2  29    299.58    9.18  0. 1.0000     0.      0.00 
  -3  -2  29     12.18    6.82  0. 1.0000     0.      0.00 
  -2  -2  29     21.38    8.80  0. 1.0000     0.      0.00 
   3  -2  29      4.90   11.71  0. 1.0000     0.      0.00 
   4  -2  29     29.77    6.75  0. 1.0000     0.      0.00 
   5  -2  29     22.53    7.07  0. 1.0000     0.      0.00 
   6  -2  29     30.32    5.91  0. 1.0000     0.      0.00 
   7  -2  29     60.30    8.80  0. 1.0000     0.      0.00 
  -7  -1  29     11.67    7.61  0. 1.0000     0.      0.00 
  -6  -1  29     10.45    8.24  0. 1.0000     0.      0.00 
  -5  -1  29     75.22   10.68  0. 1.0000     0.      0.00 
   0  -1  29      6.45   10.23  0. 1.0000     0.      0.00 
   1  -1  29     86.52    6.93  0. 1.0000     0.      0.00 
   2  -1  29    134.51    6.83  0. 1.0000     0.      0.00 
   3  -1  29     27.92    5.14  0. 1.0000     0.      0.00 
   4  -1  29     10.10    6.42  0. 1.0000     0.      0.00 
   5  -1  29     10.11    9.01  0. 1.0000     0.      0.00 
   6  -1  29     20.66   12.37  0. 1.0000     0.      0.00 
  -8   0  29     45.31   34.03  0. 1.0000     0.      0.00 
  -7   0  29     30.33   44.74  0. 1.0000     0.      0.00 
  -6   0  29     29.82   34.28  0. 1.0000     0.      0.00 
  -5   0  29     77.63   56.80  0. 1.0000     0.      0.00 
  -3   0  29    239.95   12.41  0. 1.0000     0.      0.00 
  -2   0  29     19.81    6.67  0. 1.0000     0.      0.00 
  -1   0  29     84.70    6.24  0. 1.0000     0.      0.00 
   0   0  29    140.05    6.63  0. 1.0000     0.      0.00 
   1   0  29     52.44    5.79  0. 1.0000     0.      0.00 
   2   0  29      9.35    6.84  0. 1.0000     0.      0.00 
   3   0  29    106.43   15.31  0. 1.0000     0.      0.00 
   7   0  29      0.00   47.55  0. 1.0000     0.      0.00 
  -8   1  29      2.64   15.85  0. 1.0000     0.      0.00 
  -7   1  29     15.24   20.67  0. 1.0000     0.      0.00 
  -6   1  29     37.71    8.56  0. 1.0000     0.      0.00 
  -5   1  29      9.41    5.74  0. 1.0000     0.      0.00 
  -4   1  29      8.85    5.52  0. 1.0000     0.      0.00 
  -3   1  29     16.41    4.76  0. 1.0000     0.      0.00 
  -2   1  29     20.19    6.14  0. 1.0000     0.      0.00 
  -1   1  29    243.68    8.10  0. 1.0000     0.      0.00 
   0   1  29     20.15   17.44  0. 1.0000     0.      0.00 
   5   1  29    177.91   14.89  0. 1.0000     0.      0.00 
   6   1  29     26.95    8.82  0. 1.0000     0.      0.00 
   7   1  29      4.36    9.16  0. 1.0000     0.      0.00 
  -8   2  29     27.21    4.40  0. 1.0000     0.      0.00 
  -7   2  29     20.49    7.03  0. 1.0000     0.      0.00 
  -6   2  29    188.27    6.11  0. 1.0000     0.      0.00 
  -5   2  29    183.69    5.90  0. 1.0000     0.      0.00 
  -4   2  29     65.46    6.93  0. 1.0000     0.      0.00 
  -3   2  29     16.43   10.80  0. 1.0000     0.      0.00 
   2   2  29     35.15   25.84  0. 1.0000     0.      0.00 
   3   2  29      5.83    6.85  0. 1.0000     0.      0.00 
   4   2  29     17.57    6.30  0. 1.0000     0.      0.00 
   5   2  29     12.04    5.58  0. 1.0000     0.      0.00 
   6   2  29     66.06    9.51  0. 1.0000     0.      0.00 
  -8   3  29     13.51   23.76  0. 1.0000     0.      0.00 
  -7   3  29     14.33    7.97  0. 1.0000     0.      0.00 
  -6   3  29     52.34   11.18  0. 1.0000     0.      0.00 
  -5   3  29     51.32   32.69  0. 1.0000     0.      0.00 
  -1   3  29     73.57   18.22  0. 1.0000     0.      0.00 
   0   3  29    274.22    8.86  0. 1.0000     0.      0.00 
   1   3  29     16.26    6.05  0. 1.0000     0.      0.00 
   2   3  29     26.78    5.52  0. 1.0000     0.      0.00 
   3   3  29      8.39    6.22  0. 1.0000     0.      0.00 
   4   3  29     16.94    9.85  0. 1.0000     0.      0.00 
   5   3  29     75.81   22.14  0. 1.0000     0.      0.00 
  -7   4  29     42.23   25.88  0. 1.0000     0.      0.00 
  -6   4  29      0.00   38.67  0. 1.0000     0.      0.00 
  -5   4  29    169.09   66.85  0. 1.0000     0.      0.00 
  -4   4  29     60.19   13.25  0. 1.0000     0.      0.00 
  -3   4  29     32.70    6.96  0. 1.0000     0.      0.00 
  -2   4  29     44.03    6.24  0. 1.0000     0.      0.00 
  -1   4  29     88.91    5.35  0. 1.0000     0.      0.00 
   0   4  29     12.12    6.19  0. 1.0000     0.      0.00 
   1   4  29     28.50    7.57  0. 1.0000     0.      0.00 
   2   4  29     27.29   34.45  0. 1.0000     0.      0.00 
  -7   5  29      7.43    5.35  0. 1.0000     0.      0.00 
  -6   5  29      2.00    7.72  0. 1.0000     0.      0.00 
  -5   5  29     33.03    6.13  0. 1.0000     0.      0.00 
  -4   5  29     10.01    4.71  0. 1.0000     0.      0.00 
  -3   5  29     68.85    5.80  0. 1.0000     0.      0.00 
  -2   5  29     80.56    7.65  0. 1.0000     0.      0.00 
  -1   5  29      0.75   18.58  0. 1.0000     0.      0.00 
   4   5  29     34.31   18.73  0. 1.0000     0.      0.00 
  -6   6  29     36.91    6.91  0. 1.0000     0.      0.00 
  -5   6  29     51.34   10.32  0. 1.0000     0.      0.00 
  -4   6  29      2.20   15.44  0. 1.0000     0.      0.00 
   1   6  29     21.75   25.40  0. 1.0000     0.      0.00 
   2   6  29      1.89   10.26  0. 1.0000     0.      0.00 
   3   6  29     88.83    7.97  0. 1.0000     0.      0.00 
  -5   7  29      0.00   68.19  0. 1.0000     0.      0.00 
  -4   7  29      0.00   51.68  0. 1.0000     0.      0.00 
  -2   7  29    194.97   20.05  0. 1.0000     0.      0.00 
  -1   7  29     64.08   14.05  0. 1.0000     0.      0.00 
   0   7  29      5.19    8.15  0. 1.0000     0.      0.00 
   1   7  29     11.93    6.70  0. 1.0000     0.      0.00 
   0  -8  30     13.90    9.97  0. 1.0000     0.      0.00 
   1  -8  30      0.00    8.18  0. 1.0000     0.      0.00 
   2  -8  30     21.16    7.76  0. 1.0000     0.      0.00 
   3  -8  30     19.48    8.98  0. 1.0000     0.      0.00 
   4  -8  30     27.35    9.35  0. 1.0000     0.      0.00 
  -2  -7  30      6.92    8.17  0. 1.0000     0.      0.00 
  -1  -7  30     41.34    7.34  0. 1.0000     0.      0.00 
   0  -7  30    119.26    8.25  0. 1.0000     0.      0.00 
   1  -7  30      2.28    8.78  0. 1.0000     0.      0.00 
   2  -7  30     44.98    9.74  0. 1.0000     0.      0.00 
   3  -7  30     47.19   22.77  0. 1.0000     0.      0.00 
   4  -7  30     24.23   18.67  0. 1.0000     0.      0.00 
   5  -7  30     24.34   23.06  0. 1.0000     0.      0.00 
  -4  -6  30     73.80   17.48  0. 1.0000     0.      0.00 
  -3  -6  30     99.98    8.79  0. 1.0000     0.      0.00 
  -2  -6  30     30.01    8.81  0. 1.0000     0.      0.00 
  -1  -6  30     71.49    8.94  0. 1.0000     0.      0.00 
   0  -6  30    210.57   23.22  0. 1.0000     0.      0.00 
   1  -6  30      0.00   16.86  0. 1.0000     0.      0.00 
   2  -6  30     24.06   21.35  0. 1.0000     0.      0.00 
   3  -6  30    134.78   21.81  0. 1.0000     0.      0.00 
   4  -6  30     12.26   10.41  0. 1.0000     0.      0.00 
   5  -6  30     27.81    8.91  0. 1.0000     0.      0.00 
   6  -6  30     33.09    7.28  0. 1.0000     0.      0.00 
  -5  -5  30     21.82   27.75  0. 1.0000     0.      0.00 
  -4  -5  30     57.66   11.88  0. 1.0000     0.      0.00 
  -3  -5  30     41.76   78.02  0. 1.0000     0.      0.00 
  -2  -5  30      0.00   16.35  0. 1.0000     0.      0.00 
   0  -5  30     86.90   37.16  0. 1.0000     0.      0.00 
   1  -5  30     44.28    9.06  0. 1.0000     0.      0.00 
   2  -5  30     43.01    7.83  0. 1.0000     0.      0.00 
   3  -5  30     24.78    6.71  0. 1.0000     0.      0.00 
   4  -5  30     43.98    6.39  0. 1.0000     0.      0.00 
   5  -5  30     22.69    7.08  0. 1.0000     0.      0.00 
   6  -5  30     43.43    8.79  0. 1.0000     0.      0.00 
   7  -5  30     43.64   26.37  0. 1.0000     0.      0.00 
  -5  -4  30     11.84   24.75  0. 1.0000     0.      0.00 
  -2  -4  30    158.37    9.18  0. 1.0000     0.      0.00 
  -1  -4  30     12.83    7.47  0. 1.0000     0.      0.00 
   0  -4  30    123.57    7.44  0. 1.0000     0.      0.00 
   1  -4  30      2.33    6.58  0. 1.0000     0.      0.00 
   2  -4  30     46.48    7.48  0. 1.0000     0.      0.00 
   3  -4  30    161.23    8.79  0. 1.0000     0.      0.00 
   4  -4  30     18.19   10.88  0. 1.0000     0.      0.00 
   6  -4  30     49.23   26.54  0. 1.0000     0.      0.00 
   7  -4  30     14.29   17.70  0. 1.0000     0.      0.00 
  -6  -3  30     88.71   32.01  0. 1.0000     0.      0.00 
  -5  -3  30      7.35   10.31  0. 1.0000     0.      0.00 
  -4  -3  30      3.58    7.56  0. 1.0000     0.      0.00 
  -3  -3  30     20.79    6.84  0. 1.0000     0.      0.00 
  -2  -3  30     25.54    6.74  0. 1.0000     0.      0.00 
  -1  -3  30     76.94    6.92  0. 1.0000     0.      0.00 
   0  -3  30    150.30    9.43  0. 1.0000     0.      0.00 
   1  -3  30     55.44   10.45  0. 1.0000     0.      0.00 
   5  -3  30     44.72   47.83  0. 1.0000     0.      0.00 
   6  -3  30      1.10   11.34  0. 1.0000     0.      0.00 
   7  -3  30     27.63    9.10  0. 1.0000     0.      0.00 
  -6  -2  30     39.94    8.23  0. 1.0000     0.      0.00 
  -5  -2  30     26.35    7.17  0. 1.0000     0.      0.00 
  -4  -2  30     63.87    6.86  0. 1.0000     0.      0.00 
  -3  -2  30      5.12    7.08  0. 1.0000     0.      0.00 
  -2  -2  30      0.00    9.12  0. 1.0000     0.      0.00 
   3  -2  30     19.16   10.61  0. 1.0000     0.      0.00 
   4  -2  30     66.35    7.63  0. 1.0000     0.      0.00 
   5  -2  30     61.19    6.88  0. 1.0000     0.      0.00 
   6  -2  30     17.81    5.92  0. 1.0000     0.      0.00 
   7  -2  30     37.97    9.78  0. 1.0000     0.      0.00 
  -7  -1  30     35.69    8.48  0. 1.0000     0.      0.00 
  -6  -1  30     49.09    8.37  0. 1.0000     0.      0.00 
  -5  -1  30     31.59   10.71  0. 1.0000     0.      0.00 
  -4  -1  30     56.50   30.07  0. 1.0000     0.      0.00 
   0  -1  30      9.76   13.43  0. 1.0000     0.      0.00 
   1  -1  30     59.06    6.62  0. 1.0000     0.      0.00 
   2  -1  30     11.71    6.25  0. 1.0000     0.      0.00 
   3  -1  30    163.84    6.61  0. 1.0000     0.      0.00 
   4  -1  30      9.47    6.56  0. 1.0000     0.      0.00 
   5  -1  30     70.80    9.31  0. 1.0000     0.      0.00 
   6  -1  30     51.85   15.27  0. 1.0000     0.      0.00 
  -7   0  30     55.88   15.26  0. 1.0000     0.      0.00 
  -6   0  30      0.00   58.70  0. 1.0000     0.      0.00 
  -5   0  30     58.09   51.91  0. 1.0000     0.      0.00 
  -3   0  30    285.59   14.42  0. 1.0000     0.      0.00 
  -2   0  30      8.01    6.57  0. 1.0000     0.      0.00 
  -1   0  30    180.56    7.64  0. 1.0000     0.      0.00 
   0   0  30     22.23    5.32  0. 1.0000     0.      0.00 
   1   0  30      6.94    5.86  0. 1.0000     0.      0.00 
   2   0  30     23.65    7.28  0. 1.0000     0.      0.00 
   3   0  30     65.28   15.03  0. 1.0000     0.      0.00 
  -7   1  30    166.47   23.30  0. 1.0000     0.      0.00 
  -6   1  30     13.52    9.51  0. 1.0000     0.      0.00 
  -5   1  30     32.51    6.32  0. 1.0000     0.      0.00 
  -4   1  30     52.87    5.87  0. 1.0000     0.      0.00 
  -3   1  30     12.94    5.62  0. 1.0000     0.      0.00 
  -2   1  30     26.96    5.50  0. 1.0000     0.      0.00 
  -1   1  30     15.84    6.97  0. 1.0000     0.      0.00 
   0   1  30     12.97   17.58  0. 1.0000     0.      0.00 
   5   1  30      3.74   15.69  0. 1.0000     0.      0.00 
   6   1  30     50.31    9.31  0. 1.0000     0.      0.00 
  -7   2  30     11.18    7.69  0. 1.0000     0.      0.00 
  -6   2  30     11.16    5.59  0. 1.0000     0.      0.00 
  -5   2  30     10.43    5.39  0. 1.0000     0.      0.00 
  -4   2  30     26.20    6.73  0. 1.0000     0.      0.00 
  -3   2  30    193.07   13.31  0. 1.0000     0.      0.00 
   2   2  30     99.77   26.51  0. 1.0000     0.      0.00 
   3   2  30     33.58    7.77  0. 1.0000     0.      0.00 
   4   2  30      3.74    6.76  0. 1.0000     0.      0.00 
   5   2  30      4.50    6.28  0. 1.0000     0.      0.00 
   6   2  30     20.58   16.78  0. 1.0000     0.      0.00 
  -7   3  30     61.89    9.04  0. 1.0000     0.      0.00 
  -6   3  30    121.85   12.32  0. 1.0000     0.      0.00 
  -1   3  30      1.56   19.76  0. 1.0000     0.      0.00 
   0   3  30     47.07    7.81  0. 1.0000     0.      0.00 
   1   3  30     19.48    6.45  0. 1.0000     0.      0.00 
   2   3  30    117.42    6.73  0. 1.0000     0.      0.00 
   3   3  30     37.90    7.00  0. 1.0000     0.      0.00 
   4   3  30     35.80   10.04  0. 1.0000     0.      0.00 
   5   3  30      6.12   22.44  0. 1.0000     0.      0.00 
  -7   4  30     43.26   38.75  0. 1.0000     0.      0.00 
  -6   4  30    119.13   42.74  0. 1.0000     0.      0.00 
  -5   4  30     77.74   86.05  0. 1.0000     0.      0.00 
  -4   4  30    234.32   18.32  0. 1.0000     0.      0.00 
  -3   4  30      4.28    7.05  0. 1.0000     0.      0.00 
  -2   4  30     66.52    6.21  0. 1.0000     0.      0.00 
  -1   4  30     60.50    6.16  0. 1.0000     0.      0.00 
   0   4  30      4.68    6.34  0. 1.0000     0.      0.00 
   1   4  30     41.09    7.92  0. 1.0000     0.      0.00 
   2   4  30      3.70   35.73  0. 1.0000     0.      0.00 
  -6   5  30     20.44    8.19  0. 1.0000     0.      0.00 
  -5   5  30     35.10    6.76  0. 1.0000     0.      0.00 
  -4   5  30      5.79    4.96  0. 1.0000     0.      0.00 
  -3   5  30    105.79    6.63  0. 1.0000     0.      0.00 
  -2   5  30      8.68    7.73  0. 1.0000     0.      0.00 
  -1   5  30     71.94   21.79  0. 1.0000     0.      0.00 
  -5   6  30      0.00   10.16  0. 1.0000     0.      0.00 
  -4   6  30     45.26   17.93  0. 1.0000     0.      0.00 
   1   6  30      8.30   23.69  0. 1.0000     0.      0.00 
   2   6  30     65.90   39.98  0. 1.0000     0.      0.00 
  -3   7  30     29.36   64.97  0. 1.0000     0.      0.00 
  -2   7  30      5.19   10.23  0. 1.0000     0.      0.00 
  -1   7  30     38.19   17.40  0. 1.0000     0.      0.00 
  -1  -7  31     15.97    8.23  0. 1.0000     0.      0.00 
   0  -7  31     18.69    8.28  0. 1.0000     0.      0.00 
   1  -7  31     50.72    8.92  0. 1.0000     0.      0.00 
   2  -7  31      0.00   10.92  0. 1.0000     0.      0.00 
   3  -7  31     27.70   14.89  0. 1.0000     0.      0.00 
   4  -7  31     44.96   10.15  0. 1.0000     0.      0.00 
  -3  -6  31    158.35   17.65  0. 1.0000     0.      0.00 
  -2  -6  31     19.48    9.26  0. 1.0000     0.      0.00 
  -1  -6  31     16.11   10.12  0. 1.0000     0.      0.00 
   0  -6  31      0.00   26.65  0. 1.0000     0.      0.00 
   1  -6  31     30.88   35.72  0. 1.0000     0.      0.00 
   2  -6  31      0.00   47.17  0. 1.0000     0.      0.00 
   4  -6  31      8.10   10.86  0. 1.0000     0.      0.00 
   5  -6  31     77.96   10.32  0. 1.0000     0.      0.00 
  -4  -5  31     15.88   12.32  0. 1.0000     0.      0.00 
  -3  -5  31      0.04   43.33  0. 1.0000     0.      0.00 
   1  -5  31    216.27   11.81  0. 1.0000     0.      0.00 
   2  -5  31      8.35    8.88  0. 1.0000     0.      0.00 
   3  -5  31     13.46    7.30  0. 1.0000     0.      0.00 
   4  -5  31     87.56    7.34  0. 1.0000     0.      0.00 
   5  -5  31     26.81    7.95  0. 1.0000     0.      0.00 
   6  -5  31     18.62   11.76  0. 1.0000     0.      0.00 
  -5  -4  31    113.85   40.87  0. 1.0000     0.      0.00 
  -4  -4  31     13.30   51.51  0. 1.0000     0.      0.00 
  -3  -4  31      0.00   65.36  0. 1.0000     0.      0.00 
  -2  -4  31    100.07   10.57  0. 1.0000     0.      0.00 
  -1  -4  31     27.25    7.80  0. 1.0000     0.      0.00 
   0  -4  31    229.09    8.25  0. 1.0000     0.      0.00 
   1  -4  31    181.26    7.60  0. 1.0000     0.      0.00 
   2  -4  31     13.14    7.66  0. 1.0000     0.      0.00 
   3  -4  31      5.13    7.94  0. 1.0000     0.      0.00 
   4  -4  31     20.76   12.72  0. 1.0000     0.      0.00 
   6  -4  31     15.43   19.53  0. 1.0000     0.      0.00 
  -5  -3  31     21.44   10.56  0. 1.0000     0.      0.00 
  -4  -3  31    167.68    9.07  0. 1.0000     0.      0.00 
  -3  -3  31     63.98    7.63  0. 1.0000     0.      0.00 
  -2  -3  31    170.37    7.73  0. 1.0000     0.      0.00 
  -1  -3  31     48.26    7.20  0. 1.0000     0.      0.00 
   0  -3  31     37.58    7.45  0. 1.0000     0.      0.00 
   1  -3  31     25.47   11.28  0. 1.0000     0.      0.00 
   5  -3  31      0.00   20.28  0. 1.0000     0.      0.00 
   6  -3  31     39.10   12.44  0. 1.0000     0.      0.00 
  -6  -2  31     63.27    6.98  0. 1.0000     0.      0.00 
  -5  -2  31     56.60    7.91  0. 1.0000     0.      0.00 
  -4  -2  31    148.30    7.93  0. 1.0000     0.      0.00 
  -3  -2  31     19.47    7.27  0. 1.0000     0.      0.00 
  -2  -2  31    120.94   11.85  0. 1.0000     0.      0.00 
   3  -2  31     79.81   12.11  0. 1.0000     0.      0.00 
   4  -2  31     60.10    7.73  0. 1.0000     0.      0.00 
   5  -2  31      0.25    7.47  0. 1.0000     0.      0.00 
   6  -2  31      9.48    6.28  0. 1.0000     0.      0.00 
  -6  -1  31    124.68    9.63  0. 1.0000     0.      0.00 
  -5  -1  31     90.10   13.18  0. 1.0000     0.      0.00 
  -4  -1  31     33.68   44.17  0. 1.0000     0.      0.00 
   0  -1  31     48.48   17.80  0. 1.0000     0.      0.00 
   1  -1  31    106.28    8.42  0. 1.0000     0.      0.00 
   2  -1  31      5.06    7.08  0. 1.0000     0.      0.00 
   3  -1  31     41.58    6.05  0. 1.0000     0.      0.00 
   4  -1  31     64.27    7.18  0. 1.0000     0.      0.00 
   5  -1  31      7.54   10.39  0. 1.0000     0.      0.00 
   6  -1  31     14.32   15.61  0. 1.0000     0.      0.00 
  -6   0  31     42.82   33.51  0. 1.0000     0.      0.00 
  -3   0  31    101.41   15.01  0. 1.0000     0.      0.00 
  -2   0  31     14.09    7.07  0. 1.0000     0.      0.00 
  -1   0  31    249.78    8.22  0. 1.0000     0.      0.00 
   0   0  31     34.25    6.54  0. 1.0000     0.      0.00 
   1   0  31     81.68    8.06  0. 1.0000     0.      0.00 
   2   0  31    143.13    8.51  0. 1.0000     0.      0.00 
   3   0  31     28.29   19.19  0. 1.0000     0.      0.00 
  -6   1  31     15.92   10.15  0. 1.0000     0.      0.00 
  -5   1  31     70.49    7.07  0. 1.0000     0.      0.00 
  -4   1  31     19.49    6.06  0. 1.0000     0.      0.00 
  -3   1  31    142.22    6.42  0. 1.0000     0.      0.00 
  -2   1  31    105.98    6.79  0. 1.0000     0.      0.00 
  -1   1  31     20.63    6.71  0. 1.0000     0.      0.00 
   0   1  31      0.00   18.37  0. 1.0000     0.      0.00 
   5   1  31     28.51   17.33  0. 1.0000     0.      0.00 
  -6   2  31     65.48    6.29  0. 1.0000     0.      0.00 
  -5   2  31     92.41    5.93  0. 1.0000     0.      0.00 
  -4   2  31     27.83    7.40  0. 1.0000     0.      0.00 
  -3   2  31     10.93   16.23  0. 1.0000     0.      0.00 
   2   2  31    196.03   25.56  0. 1.0000     0.      0.00 
   3   2  31      0.00    9.35  0. 1.0000     0.      0.00 
   4   2  31     23.38    7.58  0. 1.0000     0.      0.00 
   5   2  31     39.60    7.25  0. 1.0000     0.      0.00 
  -6   3  31     41.45   12.36  0. 1.0000     0.      0.00 
  -1   3  31      0.00   22.49  0. 1.0000     0.      0.00 
   0   3  31    148.73    8.15  0. 1.0000     0.      0.00 
   1   3  31     17.68    6.90  0. 1.0000     0.      0.00 
   2   3  31     25.10    6.60  0. 1.0000     0.      0.00 
   3   3  31     26.73    8.60  0. 1.0000     0.      0.00 
   4   3  31     27.93   13.19  0. 1.0000     0.      0.00 
  -6   4  31     83.86   33.68  0. 1.0000     0.      0.00 
  -5   4  31     30.81   67.53  0. 1.0000     0.      0.00 
  -4   4  31    151.72   20.25  0. 1.0000     0.      0.00 
  -3   4  31     17.01    7.89  0. 1.0000     0.      0.00 
  -2   4  31     58.18    6.87  0. 1.0000     0.      0.00 
  -1   4  31     25.11    6.27  0. 1.0000     0.      0.00 
   0   4  31      2.20    7.15  0. 1.0000     0.      0.00 
   1   4  31     55.06    9.65  0. 1.0000     0.      0.00 
   2   4  31      0.00   37.02  0. 1.0000     0.      0.00 
  -5   5  31     52.76    5.49  0. 1.0000     0.      0.00 
  -4   5  31     30.37    5.46  0. 1.0000     0.      0.00 
  -3   5  31     46.25    7.03  0. 1.0000     0.      0.00 
  -2   5  31      2.59    8.11  0. 1.0000     0.      0.00 
  -1   5  31      0.00   24.89  0. 1.0000     0.      0.00 
  -1  -6  32     71.65   10.79  0. 1.0000     0.      0.00 
   0  -6  32      1.41   21.82  0. 1.0000     0.      0.00 
   1  -6  32     57.77   22.48  0. 1.0000     0.      0.00 
   2  -6  32    206.61   27.73  0. 1.0000     0.      0.00 
   3  -6  32     63.08   31.14  0. 1.0000     0.      0.00 
   4  -6  32    301.63   13.32  0. 1.0000     0.      0.00 
  -3  -5  32     27.00   13.54  0. 1.0000     0.      0.00 
  -2  -5  32     48.47   29.11  0. 1.0000     0.      0.00 
   1  -5  32     31.67   12.93  0. 1.0000     0.      0.00 
   2  -5  32    181.95   10.02  0. 1.0000     0.      0.00 
   3  -5  32     48.34    8.42  0. 1.0000     0.      0.00 
   4  -5  32     23.29    7.38  0. 1.0000     0.      0.00 
   5  -5  32     20.86   11.04  0. 1.0000     0.      0.00 
  -4  -4  32      0.00   23.04  0. 1.0000     0.      0.00 
  -3  -4  32    110.67   33.32  0. 1.0000     0.      0.00 
  -2  -4  32      1.92   11.79  0. 1.0000     0.      0.00 
  -1  -4  32    188.18    9.41  0. 1.0000     0.      0.00 
   0  -4  32    260.80    9.09  0. 1.0000     0.      0.00 
   1  -4  32    166.53    8.09  0. 1.0000     0.      0.00 
   2  -4  32     66.63    8.38  0. 1.0000     0.      0.00 
   3  -4  32     14.70    9.43  0. 1.0000     0.      0.00 
   4  -4  32     43.65   13.16  0. 1.0000     0.      0.00 
   5  -4  32    251.79   22.91  0. 1.0000     0.      0.00 
  -4  -3  32     74.11    9.30  0. 1.0000     0.      0.00 
  -3  -3  32    661.68   13.76  0. 1.0000     0.      0.00 
  -2  -3  32      5.39    7.11  0. 1.0000     0.      0.00 
  -1  -3  32     12.43    7.25  0. 1.0000     0.      0.00 
   0  -3  32      5.01    7.74  0. 1.0000     0.      0.00 
   1  -3  32    135.40   14.87  0. 1.0000     0.      0.00 
   5  -3  32    106.71   73.19  0. 1.0000     0.      0.00 
  -5  -2  32     72.93    9.01  0. 1.0000     0.      0.00 
  -4  -2  32     30.01    8.04  0. 1.0000     0.      0.00 
  -3  -2  32    571.35   12.88  0. 1.0000     0.      0.00 
  -2  -2  32     37.86   12.38  0. 1.0000     0.      0.00 
   3  -2  32    551.20   24.21  0. 1.0000     0.      0.00 
   4  -2  32     26.32    8.55  0. 1.0000     0.      0.00 
   5  -2  32     14.20    8.38  0. 1.0000     0.      0.00 
  -5  -1  32      9.58   14.04  0. 1.0000     0.      0.00 
   0  -1  32    548.86   31.70  0. 1.0000     0.      0.00 
   1  -1  32      8.64    7.24  0. 1.0000     0.      0.00 
   2  -1  32     48.20    7.40  0. 1.0000     0.      0.00 
   3  -1  32     67.86    6.49  0. 1.0000     0.      0.00 
   4  -1  32     81.46    8.53  0. 1.0000     0.      0.00 
   5  -1  32     19.60   10.15  0. 1.0000     0.      0.00 
  -5   0  32      0.00   38.04  0. 1.0000     0.      0.00 
  -3   0  32     29.34   16.09  0. 1.0000     0.      0.00 
  -2   0  32    256.56    8.58  0. 1.0000     0.      0.00 
  -1   0  32    147.83    7.32  0. 1.0000     0.      0.00 
   0   0  32    366.99   10.40  0. 1.0000     0.      0.00 
   1   0  32      0.10    7.28  0. 1.0000     0.      0.00 
   2   0  32     26.14    8.82  0. 1.0000     0.      0.00 
   3   0  32    163.34   37.66  0. 1.0000     0.      0.00 
  -5   1  32     10.76    8.07  0. 1.0000     0.      0.00 
  -4   1  32    371.05    9.55  0. 1.0000     0.      0.00 
  -3   1  32     63.48    6.48  0. 1.0000     0.      0.00 
  -2   1  32     31.73    6.64  0. 1.0000     0.      0.00 
  -1   1  32     33.04    7.23  0. 1.0000     0.      0.00 
   0   1  32    227.53   27.92  0. 1.0000     0.      0.00 
  -5   2  32    157.55    7.57  0. 1.0000     0.      0.00 
  -4   2  32    197.47    9.05  0. 1.0000     0.      0.00 
  -3   2  32      0.00   16.87  0. 1.0000     0.      0.00 
   2   2  32    166.55   23.43  0. 1.0000     0.      0.00 
   3   2  32    168.98    9.77  0. 1.0000     0.      0.00 
   4   2  32      0.00    8.43  0. 1.0000     0.      0.00 
  -5   3  32    190.19   37.11  0. 1.0000     0.      0.00 
  -1   3  32    495.19   32.55  0. 1.0000     0.      0.00 
   0   3  32      9.57    8.41  0. 1.0000     0.      0.00 
   1   3  32    121.00    8.15  0. 1.0000     0.      0.00 
   2   3  32     14.92    6.99  0. 1.0000     0.      0.00 
   3   3  32     44.57    8.50  0. 1.0000     0.      0.00 
  -4   4  32     27.86   18.98  0. 1.0000     0.      0.00 
  -3   4  32    352.54   10.74  0. 1.0000     0.      0.00 
  -2   4  32     17.08    7.64  0. 1.0000     0.      0.00 
  -1   4  32     74.30    7.34  0. 1.0000     0.      0.00 
   0   4  32     13.72    7.84  0. 1.0000     0.      0.00 
   1   4  32     15.01   10.24  0. 1.0000     0.      0.00 
   2   4  32    134.43   30.58  0. 1.0000     0.      0.00 
  -3   5  32     57.24    7.54  0. 1.0000     0.      0.00 
  -2   5  32     82.62    9.19  0. 1.0000     0.      0.00 
  -1   5  32      0.00   28.41  0. 1.0000     0.      0.00 
  -1  -5  33      6.00   12.10  0. 1.0000     0.      0.00 
   0  -5  33     10.79   28.78  0. 1.0000     0.      0.00 
   1  -5  33    569.24   20.24  0. 1.0000     0.      0.00 
   2  -5  33     90.35   10.65  0. 1.0000     0.      0.00 
   3  -5  33     15.35    9.90  0. 1.0000     0.      0.00 
  -2  -4  33    207.26   12.93  0. 1.0000     0.      0.00 
  -1  -4  33      5.62    9.53  0. 1.0000     0.      0.00 
   0  -4  33     74.06    8.53  0. 1.0000     0.      0.00 
   1  -4  33    289.40   10.64  0. 1.0000     0.      0.00 
   2  -4  33     14.67    9.35  0. 1.0000     0.      0.00 
   3  -4  33      0.00   10.83  0. 1.0000     0.      0.00 
   4  -4  33     75.61   14.41  0. 1.0000     0.      0.00 
  -3  -3  33     25.31    9.13  0. 1.0000     0.      0.00 
  -2  -3  33    131.45    8.62  0. 1.0000     0.      0.00 
  -1  -3  33     33.61    8.04  0. 1.0000     0.      0.00 
   0  -3  33     76.79    8.69  0. 1.0000     0.      0.00 
   1  -3  33      8.79   17.95  0. 1.0000     0.      0.00 
   4  -3  33    558.03   47.97  0. 1.0000     0.      0.00 
  -4  -2  33    243.37    9.90  0. 1.0000     0.      0.00 
  -3  -2  33     31.29    8.73  0. 1.0000     0.      0.00 
  -2  -2  33     38.38   16.85  0. 1.0000     0.      0.00 
   3  -2  33      9.90   17.66  0. 1.0000     0.      0.00 
   4  -2  33    351.36   11.81  0. 1.0000     0.      0.00 
  -4  -1  33     24.54   28.88  0. 1.0000     0.      0.00 
   0  -1  33    100.49   21.74  0. 1.0000     0.      0.00 
   1  -1  33    172.06    9.43  0. 1.0000     0.      0.00 
   2  -1  33     11.74    7.83  0. 1.0000     0.      0.00 
   3  -1  33     67.95    6.62  0. 1.0000     0.      0.00 
   4  -1  33     44.54    8.44  0. 1.0000     0.      0.00 
  -4   0  33     14.82   54.74  0. 1.0000     0.      0.00 
  -3   0  33     80.50   22.54  0. 1.0000     0.      0.00 
  -2   0  33     25.05    7.66  0. 1.0000     0.      0.00 
  -1   0  33    461.37   10.64  0. 1.0000     0.      0.00 
   0   0  33     11.17    6.64  0. 1.0000     0.      0.00 
   1   0  33      0.00    8.31  0. 1.0000     0.      0.00 
   2   0  33     24.39    8.69  0. 1.0000     0.      0.00 
   3   0  33    155.49   29.52  0. 1.0000     0.      0.00 
  -4   1  33    123.52    8.11  0. 1.0000     0.      0.00 
  -3   1  33     14.85    6.99  0. 1.0000     0.      0.00 
  -2   1  33     12.53    6.93  0. 1.0000     0.      0.00 
  -1   1  33    136.50    8.46  0. 1.0000     0.      0.00 
   0   1  33     23.86   24.20  0. 1.0000     0.      0.00 
  -4   2  33    137.25    9.90  0. 1.0000     0.      0.00 
  -3   2  33      6.05   18.18  0. 1.0000     0.      0.00 
   2   2  33    257.68   25.90  0. 1.0000     0.      0.00 
   3   2  33     10.15    6.43  0. 1.0000     0.      0.00 
  -4   3  33      0.00   73.29  0. 1.0000     0.      0.00 
  -3   3  33      9.17  103.63  0. 1.0000     0.      0.00 
  -1   3  33     32.65   23.10  0. 1.0000     0.      0.00 
   0   3  33     65.20    9.28  0. 1.0000     0.      0.00 
   1   3  33     29.07    8.24  0. 1.0000     0.      0.00 
   2   3  33    182.19   11.63  0. 1.0000     0.      0.00 
  -3   4  33     20.62   17.93  0. 1.0000     0.      0.00 
  -2   4  33    368.17    9.86  0. 1.0000     0.      0.00 
  -1   4  33    110.77    7.86  0. 1.0000     0.      0.00 
   0   4  33      0.00   11.15  0. 1.0000     0.      0.00 
  -1  -4  34     12.63   14.27  0. 1.0000     0.      0.00 
   0  -4  34     29.37    8.70  0. 1.0000     0.      0.00 
   1  -4  34     64.03    9.18  0. 1.0000     0.      0.00 
   2  -4  34      0.00   12.16  0. 1.0000     0.      0.00 
  -2  -3  34     12.90    9.33  0. 1.0000     0.      0.00 
  -1  -3  34     21.38    9.06  0. 1.0000     0.      0.00 
   0  -3  34     20.52    9.27  0. 1.0000     0.      0.00 
   1  -3  34      0.00   15.06  0. 1.0000     0.      0.00 
   2  -3  34     76.35   54.75  0. 1.0000     0.      0.00 
  -3  -2  34     43.38   26.62  0. 1.0000     0.      0.00 
  -2  -2  34      0.00   15.95  0. 1.0000     0.      0.00 
   3  -2  34     47.50   10.25  0. 1.0000     0.      0.00 
   0  -1  34    276.25   29.82  0. 1.0000     0.      0.00 
   1  -1  34     18.80    9.14  0. 1.0000     0.      0.00 
   2  -1  34     14.99    8.64  0. 1.0000     0.      0.00 
   3  -1  34      7.05    7.46  0. 1.0000     0.      0.00 
  -3   0  34     35.15   13.17  0. 1.0000     0.      0.00 
  -2   0  34      8.34    9.27  0. 1.0000     0.      0.00 
  -1   0  34     10.19    7.58  0. 1.0000     0.      0.00 
   0   0  34    247.53    9.80  0. 1.0000     0.      0.00 
   1   0  34     25.53    8.54  0. 1.0000     0.      0.00 
   2   0  34     14.93   10.02  0. 1.0000     0.      0.00 
  -3   1  34     19.53    7.82  0. 1.0000     0.      0.00 
  -2   1  34     13.16    8.10  0. 1.0000     0.      0.00 
  -1   1  34     21.18    8.18  0. 1.0000     0.      0.00 
   0   1  34      0.00   26.39  0. 1.0000     0.      0.00 
  -3   2  34     59.62   67.50  0. 1.0000     0.      0.00 
   0  -1  35      0.26   12.93  0. 1.0000     0.      0.00 
   1  -1  35     10.24   13.42  0. 1.0000     0.      0.00 
  -1   0  35     23.61   14.40  0. 1.0000     0.      0.00 
   0   0  35      8.06   22.10  0. 1.0000     0.      0.00 
-512 
#  14726 reflections output 
; 
# end of ARCHIVE-HKL.CIF 
