data_global

_publ_section_references
;
Allen, F. H., Johnson, O., Shields, G. P., Smith, B. R., Towler, M. (2004). 
J. Appl. Cryst., 37, 335--338.

Bruker (2019). Apex3 v2019.1-0, SAINT V8.40A, Bruker AXS 
Inc.: Madison (WI), USA, 2019.

H\"ubschle, C. B., Sheldrick, G. M. and Dittrich, B. (2011). J. Appl. Cryst., 
44, 1281--1284.

Sheldrick, G.M. (2008). Acta Cryst., A64, 112--122.

Sheldrick, G. M. (2018). SHELXL2018. University of G\"ottingen, Germany.

Sheldrick G. M. (2015). "Crystal structure refinement with SHELXL", Acta Cryst., 
C71, 3-8.

Sheldrick, G. M. (2015). "SHELXT--Integrated space-group and
crystal-structure determination", Acta Cryst. A71, 3-8.

Sheldrick, G. M. (2012). TWINABS. Ver. 2012/1. 

Spek, A. L. (2003). J. Appl. Cryst., 36, 7--13.

CSD: Groom, C. R. & Allen, F. H. (2014). Angew. Chem. Int. Ed., 53, 662--671.

Publcif: Westrip, S. P. (2010). J. Appl. Cryst., 43, 920--925.
;

_publ_section_acknowledgements
;
This material is based upon work supported by the National Science Foundation 
through the Major Research Instrumentation Program under Grant No. CHE 1625543.
(Funding for the single crystal X-ray diffractometer).
;


data_MA_369_8_2_0m_5
 
_audit_creation_method            'SHELXL-2018/3'
_shelx_SHELXL_version_number      '2018/3'
_chemical_name_systematic         ?
_chemical_name_common             ?
_chemical_melting_point           ?
_chemical_formula_moiety          
 'I10 Pb3, 2(C4 H14 N2), 2(C2 H6 O S)'
_chemical_formula_sum
 'C12 H40 I10 N4 O2 Pb3 S2' 
_chemical_formula_weight          2227.17

loop_
 _atom_type_symbol
 _atom_type_description
 _atom_type_scat_dispersion_real
 _atom_type_scat_dispersion_imag
 _atom_type_scat_source
 'C'  'C'   0.0033   0.0016
 'International Tables Vol C Tables 4.2.6.8 and 6.1.1.4'
 'H'  'H'   0.0000   0.0000
 'International Tables Vol C Tables 4.2.6.8 and 6.1.1.4'
 'N'  'N'   0.0061   0.0033
 'International Tables Vol C Tables 4.2.6.8 and 6.1.1.4'
 'I'  'I'  -0.4742   1.8119
 'International Tables Vol C Tables 4.2.6.8 and 6.1.1.4'
 'Pb'  'Pb'  -3.3944  10.1111
 'International Tables Vol C Tables 4.2.6.8 and 6.1.1.4'
 'S'  'S'   0.1246   0.1234
 'International Tables Vol C Tables 4.2.6.8 and 6.1.1.4'
 'O'  'O'   0.0106   0.0060
 'International Tables Vol C Tables 4.2.6.8 and 6.1.1.4'
 
_space_group_crystal_system       monoclinic
_space_group_IT_number            14
_space_group_name_H-M_alt         'P 21/n'
_space_group_name_Hall            '-P 2yn'
 
_shelx_space_group_comment
;
The symmetry employed for this shelxl refinement is uniquely defined
by the following loop, which should always be used as a source of
symmetry information in preference to the above space-group names.
They are only intended as comments.
;
 
loop_
 _space_group_symop_operation_xyz
 'x, y, z'
 '-x+1/2, y+1/2, -z+1/2'
 '-x, -y, -z'
 'x-1/2, -y-1/2, z-1/2'
 
_cell_length_a                    10.4168(7)
_cell_length_b                    11.7679(6)
_cell_length_c                    18.5962(11)
_cell_angle_alpha                 90
_cell_angle_beta                  96.848(3)
_cell_angle_gamma                 90
_cell_volume                      2263.3(2)
_cell_formula_units_Z             2
_cell_measurement_temperature     150(2)
_cell_measurement_reflns_used     9906    
_cell_measurement_theta_min       2.3689   
_cell_measurement_theta_max       33.0654
 
_exptl_crystal_description        block
_exptl_crystal_colour             colourless
_exptl_crystal_density_meas       ?
_exptl_crystal_density_method     ?
_exptl_crystal_density_diffrn     3.268          
_exptl_crystal_F_000              1928
_exptl_transmission_factor_min    ?
_exptl_transmission_factor_max    ?
_exptl_crystal_size_max           0.070
_exptl_crystal_size_mid           0.060
_exptl_crystal_size_min           0.050
_exptl_absorpt_coefficient_mu     18.059
_shelx_estimated_absorpt_T_min    0.365
_shelx_estimated_absorpt_T_max    0.465
_exptl_absorpt_correction_type    'multi-scan'
_exptl_absorpt_correction_T_min   0.058625  
_exptl_absorpt_correction_T_max   0.104375 
_exptl_absorpt_process_details    
;
TWINABS 2012/1: Krause, L., Herbst-Irmer, R., Sheldrick G.M. & Stalke D.
(2015). J. Appl. Cryst. 48 3-10.
;
_exptl_absorpt_special_details    ?
_diffrn_ambient_temperature       150(2)
_diffrn_radiation_wavelength      0.71073
_diffrn_radiation_type            MoK\a
_diffrn_source                    'fine focus sealed tube X-ray source'
_diffrn_source_current            '30 mA'
_diffrn_source_voltage            '50 kV'
_diffrn_radiation_monochromator   'Triumph curved graphite crystal'
_diffrn_measurement_device_type   
;
Bruker AXS D8 Quest diffractometer with PhotonII charge-integrating pixel 
array detector (CPAD)
;
_diffrn_measurement_method        'omega and phi scans'
_diffrn_detector_area_resol_mean  7.4074
_diffrn_reflns_number             66181
_diffrn_reflns_av_unetI/netI      0.0660
_diffrn_reflns_av_R_equivalents   0.0946
_diffrn_reflns_limit_h_min        -16
_diffrn_reflns_limit_h_max        15
_diffrn_reflns_limit_k_min        0
_diffrn_reflns_limit_k_max        18
_diffrn_reflns_limit_l_min        0
_diffrn_reflns_limit_l_max        28
_diffrn_reflns_theta_min          2.622
_diffrn_reflns_theta_max          33.212
_diffrn_reflns_theta_full         25.242
_diffrn_measured_fraction_theta_max   0.934
_diffrn_measured_fraction_theta_full  0.994
_diffrn_reflns_Laue_measured_fraction_max    0.934
_diffrn_reflns_Laue_measured_fraction_full   0.994
_diffrn_reflns_point_group_measured_fraction_max   0.934
_diffrn_reflns_point_group_measured_fraction_full  0.994
_reflns_number_total              10226
_reflns_number_gt                 8445
_reflns_threshold_expression      'I > 2\s(I)'
_reflns_Friedel_coverage          0.000
_reflns_Friedel_fraction_max      .
_reflns_Friedel_fraction_full     .
 
_reflns_special_details
;
 _reflns_Friedel_fraction is defined as the number of unique
 Friedel pairs measured divided by the number that would be
 possible theoretically, ignoring centric projections and
 systematic absences. Completness statistics refer to single and
 composite reflections containing twin component 1 only.
;
 
_computing_data_collection        'Apex3 v2019.1-0 (Bruker, 2019)' 
_computing_cell_refinement        'SAINT V8.40A (Bruker, 2019)' 
_computing_data_reduction         'SAINT V8.40A (Bruker, 2019)'
_computing_structure_solution     'SHELXS-97 (Sheldrick, 2008)' 
_computing_structure_refinement   
;  
SHELXL-2018/3 (Sheldrick, 2015, 2018), 
SHELXLE Rev1117 (H\"ubschle et al., 2011)
; 
_computing_molecular_graphics     ?
_computing_publication_material   ?
_refine_special_details
;
The crystal under investigation was found to be non-merohedrally 
twinned. The orientation matrices for the two components were 
identified using the program Cell_Now, with the two components 
being related by a 180 degree rotation around the real a-axis. 
The two components were integrated using Saint and 
corrected for absorption using twinabs, resulting in the 
following statistics:

4443 data (942 unique) involve domain 1 only, mean I/sigma 12.6
4413 data (899 unique) involve domain 2 only, mean I/sigma 13.3
57966 data (8615 unique) involve 2 domains, mean I/sigma 8.4
53 data (51 unique) involve 3 domains, mean I/sigma 8.6

The exact twin matrix identified by the integration program was 
found to be: 

 1.00001  0.00023  0.00006
 0.00031 -1.00000  0.00005
-0.42440 -0.00018 -1.00001

The structure was solved using direct methods with only the 
non-overlapping reflections of component 1. The structure was 
refined using the hklf 5 routine with all reflections of component 
1 (including the overlapping ones), resulting in a BASF value of 
0.5490(8).

The Rint value given is for all reflections and is based on 
agreement between observed single and composite intensities 
and those calculated from refined unique intensities and twin 
fractions (TWINABS (Sheldrick, 2012)).
;
_refine_ls_structure_factor_coef  Fsqd
_refine_ls_matrix_type            full
_refine_ls_weighting_scheme       calc
_refine_ls_weighting_details
'w=1/[\s^2^(Fo^2^)+37.6809P] where P=(Fo^2^+2Fc^2^)/3'
_atom_sites_solution_primary      direct 
_atom_sites_solution_secondary    difmap
_atom_sites_solution_hydrogens    geom
_refine_ls_hydrogen_treatment     constr
_refine_ls_extinction_method      none
_refine_ls_extinction_coef        .
_refine_ls_number_reflns          10226
_refine_ls_number_parameters      157
_refine_ls_number_restraints      0
_refine_ls_R_factor_all           0.0708
_refine_ls_R_factor_gt            0.0486
_refine_ls_wR_factor_ref          0.1040
_refine_ls_wR_factor_gt           0.0959
_refine_ls_goodness_of_fit_ref    1.171
_refine_ls_restrained_S_all       1.171
_refine_ls_shift/su_max           0.001
_refine_ls_shift/su_mean          0.000
 
loop_
 _atom_site_label
 _atom_site_type_symbol
 _atom_site_fract_x
 _atom_site_fract_y
 _atom_site_fract_z
 _atom_site_U_iso_or_equiv
 _atom_site_adp_type
 _atom_site_occupancy
 _atom_site_site_symmetry_order  
 _atom_site_calc_flag
 _atom_site_refinement_flags_posn
 _atom_site_refinement_flags_adp
 _atom_site_refinement_flags_occupancy
 _atom_site_disorder_assembly
 _atom_site_disorder_group
C1 C 0.6048(12) 0.4684(12) -0.2489(7) 0.032(3) Uani 1 1 d . . . . .
H1D H 0.520618 0.437700 -0.270777 0.038 Uiso 1 1 calc R U . . .
H1DE H 0.651889 0.496686 -0.288508 0.038 Uiso 1 1 calc R U . . .
C2 C 0.5818(12) 0.5668(10) -0.1979(6) 0.028(3) Uani 1 1 d . . . . .
H2A H 0.660214 0.576205 -0.162675 0.033 Uiso 1 1 calc R U . . .
H2AB H 0.570601 0.637529 -0.226800 0.033 Uiso 1 1 calc R U . . .
C3 C 0.3437(13) 0.5488(15) -0.2028(8) 0.047(4) Uani 1 1 d . . . . .
H3A H 0.333004 0.616686 -0.233433 0.070 Uiso 1 1 calc R U . . .
H3B H 0.274015 0.545464 -0.171813 0.070 Uiso 1 1 calc R U . . .
H3C H 0.340394 0.480852 -0.233494 0.070 Uiso 1 1 calc R U . . .
C4 C 0.4686(12) 0.6493(9) -0.1045(7) 0.029(3) Uani 1 1 d . . . . .
H4A H 0.456448 0.721334 -0.130863 0.044 Uiso 1 1 calc R U . . .
H4B H 0.551133 0.650880 -0.073110 0.044 Uiso 1 1 calc R U . . .
H4C H 0.397806 0.638346 -0.074912 0.044 Uiso 1 1 calc R U . . .
C5 C 0.5362(14) 0.1237(12) -0.0720(8) 0.041(4) Uani 1 1 d . . . . .
H5A H 0.550560 0.105649 -0.121835 0.061 Uiso 1 1 calc R U . . .
H5B H 0.490417 0.060695 -0.051840 0.061 Uiso 1 1 calc R U . . .
H5C H 0.619683 0.135433 -0.042568 0.061 Uiso 1 1 calc R U . . .
C6 C 0.3075(12) 0.2077(14) -0.1318(10) 0.049(4) Uani 1 1 d . . . . .
H6A H 0.336701 0.178712 -0.176466 0.073 Uiso 1 1 calc R U . . .
H6B H 0.250888 0.273447 -0.143029 0.073 Uiso 1 1 calc R U . . .
H6C H 0.259903 0.148091 -0.109443 0.073 Uiso 1 1 calc R U . . .
N1 N 0.6813(11) 0.3760(9) -0.2089(6) 0.038(3) Uani 1 1 d . . . . .
H1A H 0.698086 0.320511 -0.240549 0.057 Uiso 1 1 calc R U . . .
H1B H 0.635294 0.346348 -0.174752 0.057 Uiso 1 1 calc R U . . .
H1C H 0.757115 0.404966 -0.187093 0.057 Uiso 1 1 calc R U . . .
N2 N 0.4693(9) 0.5537(8) -0.1573(5) 0.0247(19) Uani 1 1 d . . . . .
H2 H 0.480494 0.481208 -0.129171 0.030 Uiso 1 1 calc R U . . .
I1 I 0.21675(7) 0.48968(7) -0.00299(5) 0.02890(16) Uani 1 1 d . . . . .
I2 I 0.05584(9) 0.41216(8) 0.21215(4) 0.03234(18) Uani 1 1 d . . . . .
I3 I -0.06203(8) 0.21022(7) -0.10916(4) 0.02724(17) Uani 1 1 d . . . . .
I4 I 0.23599(7) 0.14299(7) 0.08342(5) 0.02585(16) Uani 1 1 d . . . . .
I5 I -0.18548(8) 0.12778(7) 0.10216(5) 0.02637(16) Uani 1 1 d . . . . .
Pb1 Pb 0.00630(5) 0.32686(3) 0.05293(2) 0.02230(9) Uani 1 1 d . . . . .
Pb2 Pb 0.000000 0.000000 0.000000 0.02270(12) Uani 1 2 d S . P . .
S1 S 0.4423(3) 0.2490(3) -0.07137(18) 0.0299(7) Uani 1 1 d . . . . .
O1 O 0.5112(8) 0.3385(7) -0.1119(5) 0.035(2) Uani 1 1 d . . . . .
 
loop_
 _atom_site_aniso_label
 _atom_site_aniso_U_11
 _atom_site_aniso_U_22
 _atom_site_aniso_U_33
 _atom_site_aniso_U_23
 _atom_site_aniso_U_13
 _atom_site_aniso_U_12
C1 0.032(6) 0.042(7) 0.021(6) -0.002(5) 0.003(5) 0.012(6)
C2 0.034(7) 0.028(6) 0.023(6) 0.004(5) 0.015(5) -0.001(5)
C3 0.021(6) 0.081(12) 0.037(8) -0.008(8) -0.007(6) 0.001(7)
C4 0.022(6) 0.022(5) 0.045(7) -0.007(5) 0.009(6) 0.000(5)
C5 0.050(8) 0.043(8) 0.032(8) 0.014(6) 0.016(6) 0.018(7)
C6 0.017(6) 0.054(10) 0.073(12) -0.005(9) -0.001(7) -0.012(6)
N1 0.038(6) 0.032(6) 0.043(7) -0.006(5) 0.002(6) -0.002(5)
N2 0.017(4) 0.027(5) 0.030(5) -0.007(4) 0.007(4) 0.003(4)
I1 0.0238(3) 0.0254(4) 0.0383(4) 0.0082(3) 0.0074(3) 0.0026(3)
I2 0.0310(4) 0.0432(5) 0.0237(4) -0.0047(3) 0.0068(3) -0.0073(4)
I3 0.0328(4) 0.0246(3) 0.0233(4) 0.0000(3) -0.0009(3) 0.0032(3)
I4 0.0198(3) 0.0227(3) 0.0347(4) 0.0045(3) 0.0019(3) -0.0012(3)
I5 0.0218(3) 0.0273(4) 0.0305(4) 0.0040(3) 0.0053(3) 0.0013(3)
Pb1 0.02313(19) 0.01980(17) 0.0239(2) 0.00132(16) 0.00256(17) -0.00031(19)
Pb2 0.0227(3) 0.0190(2) 0.0262(3) 0.0003(2) 0.0022(2) 0.0002(2)
S1 0.0391(18) 0.0269(14) 0.0246(16) -0.0052(12) 0.0074(13) -0.0066(13)
O1 0.027(5) 0.029(5) 0.050(6) 0.001(4) 0.008(4) -0.007(4)
 
_geom_special_details
;
 All esds (except the esd in the dihedral angle between two l.s. planes)
 are estimated using the full covariance matrix.  The cell esds are taken
 into account individually in the estimation of esds in distances, angles
 and torsion angles; correlations between esds in cell parameters are only
 used when they are defined by crystal symmetry.  An approximate (isotropic)
 treatment of cell esds is used for estimating esds involving l.s. planes.
;
 
loop_
 _geom_bond_atom_site_label_1
 _geom_bond_atom_site_label_2
 _geom_bond_distance
 _geom_bond_site_symmetry_2
 _geom_bond_publ_flag
C1 N1 1.492(16) . ?
C1 C2 1.534(17) . ?
C1 H1D 0.9900 . ?
C1 H1DE 0.9900 . ?
C2 N2 1.476(14) . ?
C2 H2A 0.9900 . ?
C2 H2AB 0.9900 . ?
C3 N2 1.473(15) . ?
C3 H3A 0.9800 . ?
C3 H3B 0.9800 . ?
C3 H3C 0.9800 . ?
C4 N2 1.494(14) . ?
C4 H4A 0.9800 . ?
C4 H4B 0.9800 . ?
C4 H4C 0.9800 . ?
C5 S1 1.770(13) . ?
C5 H5A 0.9800 . ?
C5 H5B 0.9800 . ?
C5 H5C 0.9800 . ?
C6 S1 1.759(14) . ?
C6 H6A 0.9800 . ?
C6 H6B 0.9800 . ?
C6 H6C 0.9800 . ?
N1 H1A 0.9100 . ?
N1 H1B 0.9100 . ?
N1 H1C 0.9100 . ?
N2 H2 1.0000 . ?
I1 Pb1 3.1783(9) . ?
I1 Pb1 3.2261(9) 3_565 ?
I2 Pb1 3.1106(9) . ?
I3 Pb2 3.2165(8) . ?
I3 Pb1 3.3113(9) . ?
I4 Pb2 3.2205(8) . ?
I4 Pb1 3.2255(9) . ?
I5 Pb2 3.2371(8) . ?
I5 Pb1 3.2793(9) . ?
S1 O1 1.523(9) . ?
 
loop_
 _geom_angle_atom_site_label_1
 _geom_angle_atom_site_label_2
 _geom_angle_atom_site_label_3
 _geom_angle
 _geom_angle_site_symmetry_1
 _geom_angle_site_symmetry_3
 _geom_angle_publ_flag
N1 C1 C2 110.8(10) . . ?
N1 C1 H1D 109.5 . . ?
C2 C1 H1D 109.5 . . ?
N1 C1 H1DE 109.5 . . ?
C2 C1 H1DE 109.5 . . ?
H1D C1 H1DE 108.1 . . ?
N2 C2 C1 115.4(10) . . ?
N2 C2 H2A 108.4 . . ?
C1 C2 H2A 108.4 . . ?
N2 C2 H2AB 108.4 . . ?
C1 C2 H2AB 108.4 . . ?
H2A C2 H2AB 107.5 . . ?
N2 C3 H3A 109.5 . . ?
N2 C3 H3B 109.5 . . ?
H3A C3 H3B 109.5 . . ?
N2 C3 H3C 109.5 . . ?
H3A C3 H3C 109.5 . . ?
H3B C3 H3C 109.5 . . ?
N2 C4 H4A 109.5 . . ?
N2 C4 H4B 109.5 . . ?
H4A C4 H4B 109.5 . . ?
N2 C4 H4C 109.5 . . ?
H4A C4 H4C 109.5 . . ?
H4B C4 H4C 109.5 . . ?
S1 C5 H5A 109.5 . . ?
S1 C5 H5B 109.5 . . ?
H5A C5 H5B 109.5 . . ?
S1 C5 H5C 109.5 . . ?
H5A C5 H5C 109.5 . . ?
H5B C5 H5C 109.5 . . ?
S1 C6 H6A 109.5 . . ?
S1 C6 H6B 109.5 . . ?
H6A C6 H6B 109.5 . . ?
S1 C6 H6C 109.5 . . ?
H6A C6 H6C 109.5 . . ?
H6B C6 H6C 109.5 . . ?
C1 N1 H1A 109.5 . . ?
C1 N1 H1B 109.5 . . ?
H1A N1 H1B 109.5 . . ?
C1 N1 H1C 109.5 . . ?
H1A N1 H1C 109.5 . . ?
H1B N1 H1C 109.5 . . ?
C3 N2 C2 114.6(10) . . ?
C3 N2 C4 109.5(10) . . ?
C2 N2 C4 108.9(9) . . ?
C3 N2 H2 107.9 . . ?
C2 N2 H2 107.9 . . ?
C4 N2 H2 107.9 . . ?
Pb1 I1 Pb1 89.80(2) . 3_565 ?
Pb2 I3 Pb1 74.877(19) . . ?
Pb2 I4 Pb1 76.010(19) . . ?
Pb2 I5 Pb1 75.043(19) . . ?
I2 Pb1 I1 94.26(3) . . ?
I2 Pb1 I4 90.79(3) . . ?
I1 Pb1 I4 86.32(2) . . ?
I2 Pb1 I1 95.17(3) . 3_565 ?
I1 Pb1 I1 90.20(2) . 3_565 ?
I4 Pb1 I1 173.31(3) . 3_565 ?
I2 Pb1 I5 90.13(2) . . ?
I1 Pb1 I5 171.46(3) . . ?
I4 Pb1 I5 86.30(2) . . ?
I1 Pb1 I5 96.70(2) 3_565 . ?
I2 Pb1 I3 173.45(3) . . ?
I1 Pb1 I3 91.94(3) . . ?
I4 Pb1 I3 87.50(2) . . ?
I1 Pb1 I3 86.91(2) 3_565 . ?
I5 Pb1 I3 83.45(2) . . ?
I3 Pb2 I3 180.0 3 . ?
I3 Pb2 I4 90.77(2) 3 . ?
I3 Pb2 I4 89.23(2) . . ?
I3 Pb2 I4 89.23(2) 3 3 ?
I3 Pb2 I4 90.77(2) . 3 ?
I4 Pb2 I4 180.0 . 3 ?
I3 Pb2 I5 94.35(2) 3 . ?
I3 Pb2 I5 85.64(2) . . ?
I4 Pb2 I5 87.09(2) . . ?
I4 Pb2 I5 92.91(2) 3 . ?
I3 Pb2 I5 85.65(2) 3 3 ?
I3 Pb2 I5 94.35(2) . 3 ?
I4 Pb2 I5 92.91(2) . 3 ?
I4 Pb2 I5 87.09(2) 3 3 ?
I5 Pb2 I5 180.0 . 3 ?
O1 S1 C6 105.2(7) . . ?
O1 S1 C5 106.2(6) . . ?
C6 S1 C5 99.5(8) . . ?
 
loop_
 _geom_torsion_atom_site_label_1
 _geom_torsion_atom_site_label_2
 _geom_torsion_atom_site_label_3
 _geom_torsion_atom_site_label_4
 _geom_torsion
 _geom_torsion_site_symmetry_1
 _geom_torsion_site_symmetry_2
 _geom_torsion_site_symmetry_3
 _geom_torsion_site_symmetry_4
 _geom_torsion_publ_flag
N1 C1 C2 N2 -85.0(14) . . . . ?
C1 C2 N2 C3 -63.2(14) . . . . ?
C1 C2 N2 C4 173.8(10) . . . . ?
 
_refine_diff_density_max    2.067
_refine_diff_density_min   -1.954
_refine_diff_density_rms    0.445

_shelx_res_file
;
TITL MA_369_8_2_0m in P2(1)/n
    MA_369_8_2_0m_5.res
    created by SHELXL-2018/3 at 17:36:48 on 31-Aug-2020
CELL 0.71073  10.41680  11.76790  18.59620  90.0000  96.8477  90.0000
ZERR    2.00   0.00070   0.00060   0.00110   0.0000   0.0029   0.0000
LATT  1
SYMM 0.5-X, 0.5+Y, 0.5-Z
SFAC C H N I PB S O
UNIT 24 80 8 20 6 4 4
LIST 6 ! automatically inserted. Change 6 to 4 for CHECKCIF!!
TEMP -123.160
SIZE 0.050 0.060 0.070

OMIT   -1   0   1
L.S. 4
BOND $H
FMAP 2
PLAN 20
ACTA
CONF
WGHT    0.000000   37.680901
BASF   0.54897
FVAR       0.12157
C1    1    0.604824    0.468369   -0.248898    11.00000    0.03187    0.04237 =
         0.02128   -0.00154    0.00251    0.01213
AFIX  23
H1D   2    0.520618    0.437700   -0.270777    11.00000   -1.20000
H1DE  2    0.651889    0.496686   -0.288508    11.00000   -1.20000
AFIX   0
C2    1    0.581841    0.566818   -0.197892    11.00000    0.03382    0.02839 =
         0.02347    0.00424    0.01545   -0.00111
AFIX  23
H2A   2    0.660214    0.576205   -0.162675    11.00000   -1.20000
H2AB  2    0.570601    0.637529   -0.226800    11.00000   -1.20000
AFIX   0
C3    1    0.343680    0.548755   -0.202820    11.00000    0.02089    0.08063 =
         0.03688   -0.00845   -0.00660    0.00068
AFIX 137
H3A   2    0.333004    0.616686   -0.233433    11.00000   -1.50000
H3B   2    0.274015    0.545464   -0.171813    11.00000   -1.50000
H3C   2    0.340394    0.480852   -0.233494    11.00000   -1.50000
AFIX   0
C4    1    0.468619    0.649282   -0.104508    11.00000    0.02168    0.02219 =
         0.04550   -0.00694    0.00906   -0.00014
AFIX 137
H4A   2    0.456448    0.721334   -0.130863    11.00000   -1.50000
H4B   2    0.551133    0.650880   -0.073110    11.00000   -1.50000
H4C   2    0.397806    0.638346   -0.074912    11.00000   -1.50000
AFIX   0
C5    1    0.536226    0.123715   -0.071970    11.00000    0.05030    0.04262 =
         0.03219    0.01351    0.01574    0.01842
AFIX 137
H5A   2    0.550560    0.105649   -0.121835    11.00000   -1.50000
H5B   2    0.490417    0.060695   -0.051840    11.00000   -1.50000
H5C   2    0.619683    0.135433   -0.042568    11.00000   -1.50000
AFIX   0
C6    1    0.307537    0.207747   -0.131761    11.00000    0.01716    0.05440 =
         0.07308   -0.00509   -0.00127   -0.01157
AFIX 137
H6A   2    0.336701    0.178712   -0.176466    11.00000   -1.50000
H6B   2    0.250888    0.273447   -0.143029    11.00000   -1.50000
H6C   2    0.259903    0.148091   -0.109443    11.00000   -1.50000
AFIX   0
N1    3    0.681287    0.376044   -0.208924    11.00000    0.03788    0.03152 =
         0.04338   -0.00551    0.00249   -0.00235
AFIX 137
H1A   2    0.698086    0.320511   -0.240549    11.00000   -1.50000
H1B   2    0.635294    0.346348   -0.174752    11.00000   -1.50000
H1C   2    0.757115    0.404966   -0.187093    11.00000   -1.50000
AFIX   0
N2    3    0.469333    0.553657   -0.157325    11.00000    0.01710    0.02742 =
         0.03045   -0.00657    0.00687    0.00345
AFIX  13
H2    2    0.480494    0.481208   -0.129171    11.00000   -1.20000
AFIX   0
I1    4    0.216748    0.489675   -0.002991    11.00000    0.02382    0.02542 =
         0.03835    0.00822    0.00737    0.00262
I2    4    0.055837    0.412155    0.212148    11.00000    0.03099    0.04315 =
         0.02375   -0.00468    0.00684   -0.00731
I3    4   -0.062035    0.210224   -0.109159    11.00000    0.03285    0.02461 =
         0.02326   -0.00005   -0.00086    0.00315
I4    4    0.235987    0.142995    0.083419    11.00000    0.01982    0.02271 =
         0.03468    0.00448    0.00190   -0.00122
I5    4   -0.185479    0.127780    0.102163    11.00000    0.02176    0.02734 =
         0.03054    0.00399    0.00532    0.00129
PB1   5    0.006302    0.326861    0.052931    11.00000    0.02313    0.01980 =
         0.02392    0.00132    0.00256   -0.00031
PB2   5    0.000000    0.000000    0.000000    10.50000    0.02266    0.01903 =
         0.02623    0.00029    0.00219    0.00017
S1    6    0.442335    0.249003   -0.071367    11.00000    0.03908    0.02693 =
         0.02460   -0.00520    0.00738   -0.00658
O1    7    0.511190    0.338465   -0.111890    11.00000    0.02725    0.02896 =
         0.04991    0.00095    0.00830   -0.00657
HKLF 5




REM  MA_369_8_2_0m in P2(1)/n
REM wR2 = 0.1040, GooF = S = 1.171, Restrained GooF = 1.171 for all data
REM R1 = 0.0486 for 8445 Fo > 4sig(Fo) and 0.0708 for all 10226 data
REM 157 parameters refined using 0 restraints

END

WGHT      0.0000     37.6714

REM Highest difference peak  2.067,  deepest hole -1.954,  1-sigma level  0.445
Q1    1   0.5118  0.6172 -0.2385  11.00000  0.05    2.07
Q2    1   0.0863  0.3148 -0.2445  11.00000  0.05    2.01
Q3    1   0.0387  0.4655  0.1993  11.00000  0.05    1.98
Q4    1  -0.0230  0.6383  0.2357  11.00000  0.05    1.81
Q5    1   0.6477  0.2183 -0.0858  11.00000  0.05    1.72
Q6    1   0.5746 -0.0475 -0.1950  11.00000  0.05    1.69
Q7    1   0.4573  0.3183 -0.2476  11.00000  0.05    1.67
Q8    1  -0.1366  0.2559 -0.1776  11.00000  0.05    1.67
Q9    1   0.6598  0.0150 -0.0512  11.00000  0.05    1.65
Q10   1   0.5511  0.4139 -0.0397  11.00000  0.05    1.64
Q11   1   0.0549  0.4696 -0.0751  11.00000  0.05    1.64
Q12   1   0.4932  0.4454 -0.0572  11.00000  0.05    1.63
Q13   1  -0.0011  0.3383  0.0314  11.00000  0.05    1.61
Q14   1  -0.0021  0.2933  0.1153  11.00000  0.05    1.60
Q15   1   0.2692  0.6611 -0.0821  11.00000  0.05    1.59
Q16   1   0.4232  0.1401  0.0007  11.00000  0.05    1.59
Q17   1   0.1816  0.6107 -0.1089  11.00000  0.05    1.59
Q18   1   0.4052  0.4818 -0.0549  11.00000  0.05    1.58
Q19   1   0.8373  0.5012 -0.1722  11.00000  0.05    1.57
Q20   1  -0.1364  0.1202 -0.0348  11.00000  0.05    1.55
;
_shelx_res_checksum   23191

_shelx_hkl_file
;
   2   0   0 908.750 27.4526   2
  -2   0   1 822.375 32.8605  -2
   2   0   0 822.375 32.8605   1
   2   0   0 716.159 21.1796   1
   3   0   0 13.2209 1.02812   1
   3   0   0 2.49097 0.80813   2
  -3   0   1 969.244 78.7877  -2
   3   0   0 969.244 78.7877   1
   4   0   0 3702.66 107.063   2
   4   0   0 2919.75 85.2922   1
  -4   0   2 8349.42 328.876  -2
   4   0   0 8349.42 328.876   1
  -5   0   2 33.9418 1.93790  -2
   5   0   0 33.9418 1.93790   1
   6   0   0 127.743 4.97994   2
   6   0   0 114.954 4.67048   1
  -7   0   3 11.3544 1.25669  -2
   7   0   0 11.3544 1.25669   1
  -8   0   3 12.4876 4.20090  -2
   8   0   0 12.4876 4.20090   1
   8   0   0 13.6410 2.72894   2
  -9   0   4 63.1635 8.64845  -2
   9   0   0 63.1635 8.64845   1
 -10   0   4 484.183 21.8143  -2
  10   0   0 484.183 21.8143   1
 -11   0   5 16.2474 7.44670  -2
  11   0   0 16.2474 7.44670   1
 -12   0   5 81.5322 7.86259  -2
  12   0   0 81.5322 7.86259   1
 -14   0   6 119.897 8.39918  -2
  14   0   0 119.897 8.39918   1
 -15   0   6 -2.6090 9.61627  -2
  15   0   0 -2.6090 9.61627   1
   1   1   0 3.19657 0.24916   2
   1   1   0 2.45990 0.25765   1
   2   1   0 116.927 3.07830   2
   2   1   0 90.7307 2.50391   1
  -2   1   1 192.294 6.22157  -2
   2   1   0 192.294 6.22157   1
   3   1   0 60.1565 1.81874   1
   3   1   0 75.4711 1.87703   2
  -3   1   1 199.507 7.45560  -2
   3   1   0 199.507 7.45560   1
   4   1   0 2.98329 0.87450   1
  -4   1   2 619.483 25.3767  -2
   4   1   0 619.483 25.3767   1
   4   1   0 5.41951 0.86339   2
  -5   1   2 14.8283 1.58313  -2
   5   1   0 14.8283 1.58313   1
   6   1   0 0.05632 1.02573   1
   6   1   0 3.64683 0.86604   2
  -6   1   3 92.3186 12.5697  -2
   6   1   0 92.3186 12.5697   1
  -7   1   3 136.564 4.52324  -2
   7   1   0 136.564 4.52324   1
   8   1   0 2.68851 1.01871   2
  -8   1   3 3.06531 1.98010  -2
   8   1   0 3.06531 1.98010   1
  -9   1   4 22.8766 2.27884  -2
   9   1   0 22.8766 2.27884   1
 -10   1   4 666.600 20.0010  -2
  10   1   0 666.600 20.0010   1
 -11   1   5 84.8372 6.64737  -2
  11   1   0 84.8372 6.64737   1
 -12   1   5 52.3349 4.74392  -2
  12   1   0 52.3349 4.74392   1
 -14   1   6 243.781 9.81439  -2
  14   1   0 243.781 9.81439   1
 -15   1   6 17.6570 5.56079  -2
  15   1   0 17.6570 5.56079   1
   0   2   0 6.38751 0.60414  -2
   0   2   0 6.38751 0.60414   1
   1   2   0 32.9616 0.98473   1
   1   2   0 41.4905 1.11072   2
   1   2   0 75.6102 5.30533  -2
   1   2   0 75.6102 5.30533   1
   2   2   0 373.594 12.5167   2
  -2   2   1 721.954 15.2698  -2
   2   2   0 721.954 15.2698   1
   2   2   0 291.605 10.1723   1
   3   2   0 846.191 21.0452   2
   3   2   0 697.416 15.5289   1
  -3   2   1 750.518 23.6693  -2
   3   2   0 750.518 23.6693   1
   4   2   0 14.7031 1.20324   2
   4   2   0 13.2937 1.21635   1
  -4   2   2 21.7649 2.91890  -2
   4   2   0 21.7649 2.91890   1
  -5   2   2 36.5056 2.06829  -2
   5   2   0 36.5056 2.06829   1
   6   2   0 8.79725 0.91169   2
   6   2   0 6.27004 1.33288   1
  -6   2   2 38.2964 10.4962  -2
   6   2   0 38.2964 10.4962   1
  -7   2   3 643.904 17.8812  -2
   7   2   0 643.904 17.8812   1
   8   2   0 4.80151 4.33935   2
  -8   2   3 195.727 7.98305  -2
   8   2   0 195.727 7.98305   1
  -9   2   4 108.091 4.36395  -2
   9   2   0 108.091 4.36395   1
 -10   2   4 27.3674 3.11102  -2
  10   2   0 27.3674 3.11102   1
 -11   2   5 58.6761 4.23413  -2
  11   2   0 58.6761 4.23413   1
 -12   2   5 249.987 10.1622  -2
  12   2   0 249.987 10.1622   1
 -14   2   6 19.9701 3.61399  -2
  14   2   0 19.9701 3.61399   1
 -15   2   6 4.46640 5.54188  -2
  15   2   0 4.46640 5.54188   1
   0   3   0 7.39987 0.84332  -2
   0   3   0 7.39987 0.84332   1
   1   3   0 322.847 6.57645   1
   1   3   0 709.411 34.1689  -2
   1   3   0 709.411 34.1689   1
   1   3   0 412.071 7.94462   2
  -2   3   1 4058.60 81.3791  -2
   2   3   0 4058.60 81.3791   1
   3   3   0 1954.12 45.6255   1
   3   3   0 2422.03 56.4514   2
  -3   3   1 1913.63 47.1934  -2
   3   3   0 1913.63 47.1934   1
  -4   3   2 752.184 29.2827  -2
   4   3   0 752.184 29.2827   1
   4   3   0 649.015 18.8842   1
   4   3   0 795.560 22.9753   2
  -5   3   2 77.0662 2.39465  -2
   5   3   0 77.0662 2.39465   1
  -6   3   3 636.101 30.9562  -2
   6   3   0 636.101 30.9562   1
   6   3   0 289.685 9.77286   2
   6   3   0 211.574 8.67696   1
  -6   3   2 238.961 25.2895  -2
   6   3   0 238.961 25.2895   1
  -7   3   3 1536.45 42.2457  -2
   7   3   0 1536.45 42.2457   1
  -8   3   3 384.649 16.6758  -2
   8   3   0 384.649 16.6758   1
   8   3   0 14.5562 3.78418   2
  -9   3   4 130.796 5.61048  -2
   9   3   0 130.796 5.61048   1
 -10   3   4 8.22345 3.24735  -2
  10   3   0 8.22345 3.24735   1
 -11   3   5 311.379 13.7125  -2
  11   3   0 311.379 13.7125   1
 -12   3   5 307.605 10.8717  -2
  12   3   0 307.605 10.8717   1
 -14   3   6 6.55891 3.07359  -2
  14   3   0 6.55891 3.07359   1
 -15   3   6 58.6951 6.60331  -2
  15   3   0 58.6951 6.60331   1
   0   4   0 228.422 6.50117  -2
   0   4   0 228.422 6.50117   1
   1   4   0 49.7270 1.77180   1
   1   4   0 67.1574 1.94902   2
   1   4   0 115.569 4.87951  -2
   1   4   0 115.569 4.87951   1
  -2   4   1 147.629 3.65877  -2
   2   4   0 147.629 3.65877   1
   3   4   0 151.127 5.33437   2
   3   4   0 130.967 5.07445   1
  -3   4   1 238.763 7.62674  -2
   3   4   0 238.763 7.62674   1
   4   4   0 2.65987 1.21575   2
  -4   4   2 22.0864 2.57495  -2
   4   4   0 22.0864 2.57495   1
   4   4   0 3.33594 1.13352   1
  -5   4   2 16.7917 1.41131  -2
   5   4   0 16.7917 1.41131   1
   6   4   0 5.81469 1.75222   2
  -6   4   2 23.2506 9.52495  -2
   6   4   0 23.2506 9.52495   1
   6   4   0 8.27274 1.90076   1
  -6   4   3 56.4491 9.36222  -2
   6   4   0 56.4491 9.36222   1
  -7   4   3 152.415 5.32666  -2
   7   4   0 152.415 5.32666   1
  -8   4   3 104.577 6.15082  -2
   8   4   0 104.577 6.15082   1
  -9   4   4 9.65907 3.01311  -2
   9   4   0 9.65907 3.01311   1
 -10   4   4 20.7005 3.65251  -2
  10   4   0 20.7005 3.65251   1
 -11   4   5 53.6087 4.98795  -2
  11   4   0 53.6087 4.98795   1
 -12   4   5 35.3754 3.02037  -2
  12   4   0 35.3754 3.02037   1
 -14   4   6 84.4806 5.77548  -2
  14   4   0 84.4806 5.77548   1
 -15   4   6 7.96548 8.83070  -2
  15   4   0 7.96548 8.83070   1
   0   5   0 3.46511 1.08975  -2
   0   5   0 3.46511 1.08975   1
   1   5   0 184.000 4.96073   2
   1   5   0 148.418 4.25440   1
   1   5   0 328.713 16.5958  -2
   1   5   0 328.713 16.5958   1
  -2   5   1 1490.78 36.6157  -2
   2   5   0 1490.78 36.6157   1
   3   5   0 554.000 21.6783   2
  -3   5   1 448.116 15.0846  -2
   3   5   0 448.116 15.0846   1
   3   5   0 417.272 15.6717   1
  -4   5   2 149.132 6.33587  -2
   4   5   0 149.132 6.33587   1
   4   5   0 165.944 9.09241   2
   4   5   0 113.933 6.75482   1
  -5   5   2 486.325 11.8639  -2
   5   5   0 486.325 11.8639   1
  -6   5   3 212.855 11.2040  -2
   6   5   0 212.855 11.2040   1
   6   5   0 4.15762 1.82059   1
   6   5   0 5.60122 1.43023   2
  -7   5   3 28.4029 2.79279  -2
   7   5   0 28.4029 2.79279   1
  -8   5   3 42.9823 4.16731  -2
   8   5   0 42.9823 4.16731   1
   8   5   0 1.80987 1.07106   2
  -9   5   4 265.174 10.2072  -2
   9   5   0 265.174 10.2072   1
 -10   5   4 119.344 5.54676  -2
  10   5   0 119.344 5.54676   1
 -11   5   5 26.0795 4.03261  -2
  11   5   0 26.0795 4.03261   1
 -12   5   5 39.3944 4.95334  -2
  12   5   0 39.3944 4.95334   1
 -14   5   6 129.086 8.18843  -2
  14   5   0 129.086 8.18843   1
   0   6   0 2488.35 67.9956  -2
   0   6   0 2488.35 67.9956   1
   1   6   0 71.9945 3.76348  -2
   1   6   0 71.9945 3.76348   1
   1   6   0 46.3951 2.58811   2
   1   6   0 35.7166 2.26720   1
  -2   6   1 78.4652 3.60426  -2
   2   6   0 78.4652 3.60426   1
  -3   6   1 50.4474 2.81637  -2
   3   6   0 50.4474 2.81637   1
   3   6   0 1.41852 2.23908   1
   3   6   0 9.33405 3.14219   2
  -4   6   2 1890.38 47.6986  -2
   4   6   0 1890.38 47.6986   1
  -5   6   2 350.989 9.66707  -2
   5   6   0 350.989 9.66707   1
   6   6   0 331.436 16.0828   1
   6   6   0 430.163 16.6186   2
  -6   6   3 395.689 31.9241  -2
   6   6   0 395.689 31.9241   1
  -7   6   3 105.027 4.02968  -2
   7   6   0 105.027 4.02968   1
  -8   6   3 625.467 20.2866  -2
   8   6   0 625.467 20.2866   1
  -9   6   4 85.8940 4.91256  -2
   9   6   0 85.8940 4.91256   1
 -10   6   4 607.385 19.2837  -2
  10   6   0 607.385 19.2837   1
 -11   6   5 48.0550 9.00553  -2
  11   6   0 48.0550 9.00553   1
 -12   6   5 134.003 8.76104  -2
  12   6   0 134.003 8.76104   1
 -14   6   6 142.671 7.80567  -2
  14   6   0 142.671 7.80567   1
 -15   6   6 29.9486 13.6855  -2
  15   6   0 29.9486 13.6855   1
   0   7   0 0.83136 1.58258  -2
   0   7   0 0.83136 1.58258   1
   1   7   0 34.7730 7.86116  -2
   1   7   0 34.7730 7.86116   1
   1   7   0 19.8268 1.91486   1
   1   7   0 25.9746 2.11672   2
  -2   7   1 81.5814 3.36969  -2
   2   7   0 81.5814 3.36969   1
  -3   7   1 209.020 6.07011  -2
   3   7   0 209.020 6.07011   1
  -4   7   2 144.712 4.80046  -2
   4   7   0 144.712 4.80046   1
  -5   7   2 172.225 5.73774  -2
   5   7   0 172.225 5.73774   1
   6   7   0 55.6285 3.99974   2
  -6   7   3 26.1165 8.33476  -2
   6   7   0 26.1165 8.33476   1
   6   7   0 41.4650 4.66508   1
  -7   7   3 135.067 5.24132  -2
   7   7   0 135.067 5.24132   1
  -8   7   3 19.3275 2.14000  -2
   8   7   0 19.3275 2.14000   1
  -9   7   4 20.7260 3.84347  -2
   9   7   0 20.7260 3.84347   1
 -10   7   4 38.2211 3.76731  -2
  10   7   0 38.2211 3.76731   1
 -11   7   5 52.5838 8.45926  -2
  11   7   0 52.5838 8.45926   1
 -12   7   5 52.8216 3.99006  -2
  12   7   0 52.8216 3.99006   1
 -13   7   5 27.1075 14.5329  -2
  13   7   0 27.1075 14.5329   1
 -14   7   6 10.4623 4.16731  -2
  14   7   0 10.4623 4.16731   1
   0   8   0 434.067 14.5176  -2
   0   8   0 434.067 14.5176   1
   1   8   0 50.6664 3.40881   1
   1   8   0 71.8176 3.93650   2
  -1   8   1 109.662 14.5815  -2
   1   8   0 109.662 14.5815   1
   1   8   0 115.709 6.75718  -2
   1   8   0 115.709 6.75718   1
  -1   8   1 171.685 19.6177  -2
   1   8   0 171.685 19.6177  -2
   1   8   0 171.685 19.6177   1
  -2   8   1 617.596 17.5362  -2
   2   8   0 617.596 17.5362   1
  -3   8   1 692.605 20.0531  -2
   3   8   0 692.605 20.0531   1
  -4   8   2 146.929 5.59139  -2
   4   8   0 146.929 5.59139   1
  -5   8   2 211.862 8.66799  -2
   5   8   0 211.862 8.66799   1
   6   8   0 8.29237 9.73514   1
  -6   8   3 9.52642 4.65392  -2
   6   8   0 9.52642 4.65392   1
  -7   8   3 296.654 10.1232  -2
   7   8   0 296.654 10.1232   1
  -8   8   3 40.2816 3.81948  -2
   8   8   0 40.2816 3.81948   1
  -9   8   4 8.26230 3.52794  -2
   9   8   0 8.26230 3.52794   1
 -10   8   4 29.6705 4.24839  -2
  10   8   0 29.6705 4.24839   1
 -11   8   5 97.8764 9.52472  -2
  11   8   0 97.8764 9.52472   1
 -12   8   5 60.3843 4.19940  -2
  12   8   0 60.3843 4.19940   1
 -13   8   5 18.6551 9.32377  -2
  13   8   0 18.6551 9.32377   1
 -14   8   6 38.9146 9.98958  -2
  14   8   0 38.9146 9.98958   1
   0   9   0 0.74935 1.61532  -2
   0   9   0 0.74935 1.61532   1
   1   9   0 623.391 24.2549   2
   1   9   0 478.242 18.9478   1
  -1   9   1 620.594 38.7258  -2
   1   9   0 620.594 38.7258   1
   1   9   0 1057.12 39.9307  -2
   1   9   0 1057.12 39.9307   1
  -2   9   1 940.250 26.8659  -2
   2   9   0 940.250 26.8659   1
  -3   9   1 389.758 14.1117  -2
   3   9   0 389.758 14.1117   1
  -4   9   2 17.7432 3.48087  -2
   4   9   0 17.7432 3.48087   1
  -5   9   2 418.516 13.3094  -2
   5   9   0 418.516 13.3094   1
  -6   9   3 242.707 16.8577  -2
   6   9   0 242.707 16.8577   1
  -7   9   3 512.352 13.6570  -2
   7   9   0 512.352 13.6570   1
  -8   9   3 283.152 13.3495  -2
   8   9   0 283.152 13.3495   1
  -9   9   4 116.833 5.51933  -2
   9   9   0 116.833 5.51933   1
 -10   9   4 63.4109 6.22852  -2
  10   9   0 63.4109 6.22852   1
 -11   9   5 300.854 13.9408  -2
  11   9   0 300.854 13.9408   1
 -12   9   5 103.608 4.98909  -2
  12   9   0 103.608 4.98909   1
 -13   9   5 15.9730 16.8778  -2
  13   9   0 15.9730 16.8778   1
   0  10   0 172.661 6.95756  -2
   0  10   0 172.661 6.95756   1
   1  10   0 77.5257 10.1412  -2
   1  10   0 77.5257 10.1412   1
  -2  10   1 151.840 6.33848  -2
   2  10   0 151.840 6.33848   1
  -3  10   1 391.501 13.9254  -2
   3  10   0 391.501 13.9254   1
  -4  10   2 122.254 6.26877  -2
   4  10   0 122.254 6.26877   1
  -5  10   2 280.474 9.32418  -2
   5  10   0 280.474 9.32418   1
  -6  10   3 180.051 18.5170  -2
   6  10   0 180.051 18.5170   1
  -7  10   3 93.0508 4.02000  -2
   7  10   0 93.0508 4.02000   1
  -8  10   3 47.3609 5.84645  -2
   8  10   0 47.3609 5.84645   1
  -9  10   4 232.575 9.19005  -2
   9  10   0 232.575 9.19005   1
 -10  10   4 15.9382 4.01624  -2
  10  10   0 15.9382 4.01624   1
 -11  10   5 2.43252 6.42645  -2
  11  10   0 2.43252 6.42645   1
 -12  10   5 8.21035 3.80619  -2
  12  10   0 8.21035 3.80619   1
   0  11   0 6.09459 2.47067  -2
   0  11   0 6.09459 2.47067   1
   1  11   0 424.277 21.2747  -2
   1  11   0 424.277 21.2747   1
   1  11   0 229.386 38.6568   2
   1  11   0 145.950 29.8860   1
  -2  11   1 37.7040 3.22016  -2
   2  11   0 37.7040 3.22016   1
  -3  11   1 5.99511 3.15417  -2
   3  11   0 5.99511 3.15417   1
  -4  11   2 42.5677 4.36824  -2
   4  11   0 42.5677 4.36824   1
  -5  11   2 461.058 15.6543  -2
   5  11   0 461.058 15.6543   1
  -6  11   3 84.4821 48.8182  -2
   6  11   0 84.4821 48.8182   1
  -7  11   3 60.3038 3.30841  -2
   7  11   0 60.3038 3.30841   1
  -8  11   3 11.8295 4.67530  -2
   8  11   0 11.8295 4.67530   1
  -9  11   4 44.0388 4.67511  -2
   9  11   0 44.0388 4.67511   1
 -10  11   4 14.2127 4.95233  -2
  10  11   0 14.2127 4.95233   1
 -11  11   5 6.24211 5.25428  -2
  11  11   0 6.24211 5.25428   1
 -12  11   5 22.5676 4.10393  -2
  12  11   0 22.5676 4.10393   1
   0  12   0 245.138 11.1330  -2
   0  12   0 245.138 11.1330   1
   1  12   0 150.547 12.4876  -2
   1  12   0 150.547 12.4876   1
  -1  12   1 223.145 24.9467  -2
   1  12   0 223.145 24.9467   1
  -2  12   1 235.776 7.96426  -2
   2  12   0 235.776 7.96426   1
  -3  12   1 209.581 8.42100  -2
   3  12   0 209.581 8.42100   1
  -4  12   2 286.781 10.8272  -2
   4  12   0 286.781 10.8272   1
  -5  12   2 71.3610 3.50482  -2
   5  12   0 71.3610 3.50482   1
  -7  12   3 63.8120 3.86237  -2
   7  12   0 63.8120 3.86237   1
  -8  12   3 199.733 16.4279  -2
   8  12   0 199.733 16.4279   1
  -9  12   4 83.7803 5.63532  -2
   9  12   0 83.7803 5.63532   1
 -10  12   4 70.9352 5.38539  -2
  10  12   0 70.9352 5.38539   1
 -11  12   5 11.7017 6.61964  -2
  11  12   0 11.7017 6.61964   1
   0  13   0 -1.4815 2.68387  -2
   0  13   0 -1.4815 2.68387   1
   1  13   0 16.4691 5.97392  -2
   1  13   0 16.4691 5.97392   1
   1  13   0 20.0842 13.1397   2
   1  13   0 6.72336 4.86643   1
  -2  13   1 94.9575 4.90134  -2
   2  13   0 94.9575 4.90134   1
  -3  13   1 63.6365 5.91332  -2
   3  13   0 63.6365 5.91332   1
  -4  13   2 44.4787 4.73436  -2
   4  13   0 44.4787 4.73436   1
  -5  13   2 5.86291 2.49436  -2
   5  13   0 5.86291 2.49436   1
  -7  13   3 103.660 5.25097  -2
   7  13   0 103.660 5.25097   1
  -8  13   3 7.76235 6.54287  -2
   8  13   0 7.76235 6.54287   1
  -9  13   4 13.5290 4.48720  -2
   9  13   0 13.5290 4.48720   1
 -10  13   4 7.04930 4.08183  -2
  10  13   0 7.04930 4.08183   1
   0  14   0 138.591 8.58644  -2
   0  14   0 138.591 8.58644   1
   1  14   0 -14.865 7.08484  -2
   1  14   0 -14.865 7.08484   1
  -2  14   1 51.5510 4.80304  -2
   2  14   0 51.5510 4.80304   1
  -3  14   1 12.1552 4.11212  -2
   3  14   0 12.1552 4.11212   1
  -4  14   2 30.3464 4.73209  -2
   4  14   0 30.3464 4.73209   1
  -5  14   2 46.2849 3.48653  -2
   5  14   0 46.2849 3.48653   1
  -7  14   3 27.8322 3.12385  -2
   7  14   0 27.8322 3.12385   1
  -8  14   3 24.0845 9.27656  -2
   8  14   0 24.0845 9.27656   1
  -9  14   4 41.4528 5.22576  -2
   9  14   0 41.4528 5.22576   1
 -10  14   4 22.8270 6.15276  -2
  10  14   0 22.8270 6.15276   1
   0  15   0 4.27312 2.78977  -2
   0  15   0 4.27312 2.78977   1
   1  15   0 394.092 26.4070  -2
   1  15   0 394.092 26.4070   1
  -2  15   1 105.884 7.63243  -2
   2  15   0 105.884 7.63243   1
  -3  15   1 113.976 9.82673  -2
   3  15   0 113.976 9.82673   1
  -4  15   2 39.7209 10.2322  -2
   4  15   0 39.7209 10.2322   1
  -5  15   2 219.673 9.18906  -2
   5  15   0 219.673 9.18906   1
  -6  15   2 65.0187 17.7245  -2
   6  15   0 65.0187 17.7245   1
  -6  15   3 70.5219 17.0612  -2
   6  15   0 70.5219 17.0612   1
  -7  15   3 19.5257 3.15760  -2
   7  15   0 19.5257 3.15760   1
  -8  15   3 48.5105 6.93209  -2
   8  15   0 48.5105 6.93209   1
   0  16   0 49.5986 4.25526  -2
   0  16   0 49.5986 4.25526   1
   1  16   0 9.98859 8.35224  -2
   1  16   0 9.98859 8.35224   1
  -2  16   1 0.32186 2.61056  -2
   2  16   0 0.32186 2.61056   1
  -3  16   1 5.87760 3.89701  -2
   3  16   0 5.87760 3.89701   1
  -4  16   2 36.7714 8.13612  -2
   4  16   0 36.7714 8.13612   1
  -5  16   2 25.4825 3.38263  -2
   5  16   0 25.4825 3.38263   1
  -7  16   3 5.85089 3.19264  -2
   7  16   0 5.85089 3.19264   1
   0  17   0 1.23832 2.76352  -2
   0  17   0 1.23832 2.76352   1
   1  17   0 13.3947 8.21013  -2
   1  17   0 13.3947 8.21013   1
  -2  17   1 5.27902 4.08963  -2
   2  17   0 5.27902 4.08963   1
  -3  17   1 6.21089 7.92613  -2
   3  17   0 6.21089 7.92613   1
  -4  17   2 6.55367 7.36346  -2
   4  17   0 6.55367 7.36346   1
  -5  17   2 45.8224 5.02639  -2
   5  17   0 45.8224 5.02639   1
   0  18   0 16.0746 6.69033  -2
   0  18   0 16.0746 6.69033   1
   1  18   0 28.4485 14.7824  -2
   1  18   0 28.4485 14.7824   1
 -15   0   5 62.3884 9.10657  -2
 -15   0   1 62.3884 9.10657   1
 -14   0   5 3.93168 5.97919  -2
 -14   0   1 3.93168 5.97919   1
 -12   0   4 28.2768 4.30265  -2
 -12   0   1 28.2768 4.30265   1
 -11   0   4 -5.7201 7.37535  -2
 -11   0   1 -5.7201 7.37535   1
 -10   0   3 22.4499 4.88134  -2
 -10   0   1 22.4499 4.88134   1
  -9   0   3 2534.76 170.984  -2
  -9   0   1 2534.76 170.984   1
  -8   0   2 513.527 20.0957  -2
  -8   0   1 513.527 20.0957   1
  -8   0   1 3.32575 1.66045   2
  -7   0   2 25.1219 1.85951  -2
  -7   0   1 25.1219 1.85951   1
  -6   0   1 6.17589 1.36431   2
  -6   0   1 3.87175 1.19325   1
  -6   0   2 1167.46 93.4288  -2
  -6   0   1 1167.46 93.4288   1
  -5   0   1 9999.99 293.852  -2
  -5   0   1 9999.99 293.852   1
  -4   0   1 25.7333 2.50483  -2
  -4   0   1 25.7333 2.50483   1
  -4   0   1 0.90441 0.90520   2
  -4   0   1 17.4483 3.21126   1
  -3   0   1 1024.45 25.5493   2
  -3   0   1 834.215 23.8119   1
   3   0   0 870.881 49.3234  -2
  -3   0   1 870.881 49.3234   1
  -2   0   1 6.16891 0.81186   1
  -2   0   1 14.1207 0.84331   2
   2   0   0 869.302 40.1693  -2
  -2   0   1 869.302 40.1693   1
  -1   0   1 -0.1822 1.50970   1
   2   0   1 1.44833 0.75930   2
   2   0   1 1.88834 0.72103   1
  -2   0   2 186.921 7.15810  -2
   2   0   1 186.921 7.15810   1
   3   0   1 62.6556 2.73657   2
  -3   0   2 55.6546 3.99149  -2
   3   0   1 55.6546 3.99149   1
   3   0   1 53.1493 2.38657   1
   4   0   1 1.04109 1.03010   2
  -4   0   3 49.1495 7.54917  -2
   4   0   1 49.1495 7.54917   1
   4   0   1 16.4116 6.59531   1
  -5   0   3 2832.24 81.3279  -2
   5   0   1 2832.24 81.3279   1
   6   0   1 2.89249 1.26120   2
   6   0   1 -0.9656 1.16739   1
  -6   0   3 5.18570 8.12592  -2
   6   0   1 5.18570 8.12592   1
  -6   0   4 99.2541 7.10271  -2
   6   0   1 99.2541 7.10271   1
  -7   0   4 10.0209 1.18010  -2
   7   0   1 10.0209 1.18010   1
  -8   0   4 156.284 12.2631  -2
   8   0   1 156.284 12.2631   1
   8   0   1 3.56557 1.73313   2
   8   0   1 10.1967 21.0659   1
  -9   0   5 547.447 22.9364  -2
   9   0   1 547.447 22.9364   1
 -10   0   5 1.94865 4.66017  -2
  10   0   1 1.94865 4.66017   1
 -11   0   6 168.630 15.1652  -2
  11   0   1 168.630 15.1652   1
 -12   0   6 5.88007 5.44792  -2
  12   0   1 5.88007 5.44792   1
 -14   0   7 7.01794 4.45787  -2
  14   0   1 7.01794 4.45787   1
 -15   0   7 33.2708 10.7519  -2
  15   0   1 33.2708 10.7519   1
 -15   1   5 44.1972 6.32036  -2
 -15   1   1 44.1972 6.32036   1
 -14   1   5 5.81820 3.16046  -2
 -14   1   1 5.81820 3.16046   1
 -12   1   4 97.4644 5.48822  -2
 -12   1   1 97.4644 5.48822   1
 -11   1   4 13.9033 5.17384  -2
 -11   1   1 13.9033 5.17384   1
 -10   1   3 6.41508 1.66475  -2
 -10   1   1 6.41508 1.66475   1
  -9   1   3 339.108 12.2490  -2
  -9   1   1 339.108 12.2490   1
  -8   1   1 43.6800 4.56512   1
  -8   1   2 249.297 8.00875  -2
  -8   1   1 249.297 8.00875   1
  -8   1   1 46.0620 5.44690   2
  -7   1   2 188.645 5.92933  -2
  -7   1   1 188.645 5.92933   1
  -6   1   1 35.9013 1.65510   2
  -6   1   1 32.6299 1.82832   1
  -5   1   1 96.2258 3.25144  -2
  -5   1   1 96.2258 3.25144   1
  -4   1   1 117.081 4.82099  -2
  -4   1   1 117.081 4.82099   1
  -4   1   1 51.4375 1.78772   1
  -4   1   1 64.4924 2.18632   2
   3   1   0 188.112 7.43239  -2
  -3   1   1 188.112 7.43239   1
  -3   1   1 141.998 3.64085   2
  -3   1   1 119.004 2.72290   1
  -2   1   1 77.0448 2.18400   1
  -2   1   1 103.417 2.76827   2
   2   1   0 198.090 5.30930  -2
  -2   1   1 198.090 5.30930   1
  -1   1   1 104.417 2.07782   2
  -1   1   1 93.4722 2.03098   1
   1   1   1 171.556 3.04906   1
   1   1   1 214.499 4.07167   2
   2   1   1 82.8296 3.02659   2
  -2   1   2 92.2815 2.48430  -2
   2   1   1 92.2815 2.48430   1
   2   1   1 66.7530 2.53830   1
   3   1   1 221.965 5.71158   2
  -3   1   2 295.930 10.6381  -2
   3   1   1 295.930 10.6381   1
   3   1   1 190.711 4.75163   1
   4   1   1 11.4496 0.99812   2
   4   1   1 12.5849 1.09846   1
  -4   1   3 149.623 8.59951  -2
   4   1   1 149.623 8.59951   1
  -5   1   3 1320.74 30.4747  -2
   5   1   1 1320.74 30.4747   1
   6   1   1 123.862 4.44510   1
   6   1   1 154.369 4.52772   2
  -6   1   4 148.047 16.0610  -2
   6   1   1 148.047 16.0610   1
  -7   1   4 382.963 10.0394  -2
   7   1   1 382.963 10.0394   1
  -8   1   4 334.783 12.7259  -2
   8   1   1 334.783 12.7259   1
   8   1   1 55.6779 4.81437   2
   8   1   1 40.5898 12.8970   1
  -9   1   5 536.772 14.8542  -2
   9   1   1 536.772 14.8542   1
 -10   1   5 95.7584 5.65388  -2
  10   1   1 95.7584 5.65388   1
 -11   1   6 180.845 10.8741  -2
  11   1   1 180.845 10.8741   1
 -12   1   6 70.4649 4.93871  -2
  12   1   1 70.4649 4.93871   1
 -14   1   7 43.7146 4.32273  -2
  14   1   1 43.7146 4.32273   1
 -15   1   7 43.4464 6.25852  -2
  15   1   1 43.4464 6.25852   1
 -15   2   5 18.2576 5.46495  -2
 -15   2   1 18.2576 5.46495   1
 -14   2   5 58.0533 5.24476  -2
 -14   2   1 58.0533 5.24476   1
 -12   2   4 97.3412 5.60772  -2
 -12   2   1 97.3412 5.60772   1
 -11   2   4 139.456 7.43092  -2
 -11   2   1 139.456 7.43092   1
 -10   2   3 17.6277 2.80835  -2
 -10   2   1 17.6277 2.80835   1
  -9   2   3 94.7240 4.40595  -2
  -9   2   1 94.7240 4.40595   1
  -8   2   2 178.367 7.59887  -2
  -8   2   1 178.367 7.59887   1
  -8   2   1 141.265 12.9099   1
  -8   2   1 170.260 15.4251   2
  -7   2   2 36.9950 2.08418  -2
  -7   2   1 36.9950 2.08418   1
  -6   2   1 207.153 6.98315   2
  -6   2   1 161.760 6.73206   1
  -6   2   2 212.035 14.6308  -2
  -6   2   1 212.035 14.6308   1
  -5   2   1 176.917 5.02832  -2
  -5   2   1 176.917 5.02832   1
  -4   2   1 2.18852 0.63522   2
  -4   2   1 5.44855 1.63006  -2
  -4   2   1 5.44855 1.63006   1
  -4   2   1 1.13772 1.01238   1
  -3   2   1 69.3077 1.98602   2
   3   2   0 889.118 26.2852  -2
  -3   2   1 889.118 26.2852   1
  -3   2   1 67.7953 2.29430   1
   2   2   0 718.792 14.9561  -2
  -2   2   1 718.792 14.9561   1
  -2   2   1 443.597 13.6204   2
  -2   2   1 378.737 12.2109   1
  -1   2   1 15.8647 0.65019   2
  -1   2   1 11.9889 0.60648   1
   1   2   1 21.9784 3.09958  -2
  -1   2   1 21.9784 3.09958   1
   0   2   1 211.257 3.64526  -2
   0   2   1 211.257 3.64526   1
   1   2   1 4.85933 0.46733   2
   1   2   1 3.31289 0.46151   1
  -1   2   1 24.6601 2.91889  -2
   1   2   1 24.6601 2.91889   1
   2   2   1 2239.31 88.8042   1
  -2   2   2 3432.71 65.8611  -2
   2   2   1 3432.71 65.8611   1
   2   2   1 3000.34 119.760   2
  -3   2   2 1491.73 46.3774  -2
   3   2   1 1491.73 46.3774   1
   3   2   1 133.744 3.87749   1
   3   2   1 144.010 4.17811   2
   4   2   1 11.1743 1.12776   2
   4   2   1 7.11389 1.26620   1
  -4   2   3 44.8244 3.66731  -2
   4   2   1 44.8244 3.66731   1
  -5   2   3 159.984 4.40026  -2
   5   2   1 159.984 4.40026   1
   6   2   1 67.6226 2.37066   2
   6   2   1 53.9621 3.16973   1
  -6   2   4 320.392 29.0602  -2
   6   2   1 320.392 29.0602   1
  -6   2   3 467.138 44.3929  -2
   6   2   1 467.138 44.3929   1
  -7   2   4 934.482 24.9485  -2
   7   2   1 934.482 24.9485   1
   8   2   1 34.4211 3.21086   2
  -8   2   4 75.9499 4.92467  -2
   8   2   1 75.9499 4.92467   1
   8   2   1 9.70133 9.76184   1
  -9   2   5 104.757 4.35109  -2
   9   2   1 104.757 4.35109   1
 -10   2   5 98.5140 5.06085  -2
  10   2   1 98.5140 5.06085   1
 -11   2   6 134.054 6.49057  -2
  11   2   1 134.054 6.49057   1
  11   2   1 13.5592 1.82936   2
 -12   2   6 50.1500 4.44488  -2
  12   2   1 50.1500 4.44488   1
 -14   2   7 29.5668 4.11094  -2
  14   2   1 29.5668 4.11094   1
 -15   2   7 5.04355 5.41315  -2
  15   2   1 5.04355 5.41315   1
 -15   3   5 2.91449 6.10406  -2
 -15   3   1 2.91449 6.10406   1
 -14   3   5 24.6626 4.44734  -2
 -14   3   1 24.6626 4.44734   1
 -12   3   4 284.589 10.6101  -2
 -12   3   1 284.589 10.6101   1
 -11   3   4 403.518 18.6011  -2
 -11   3   1 403.518 18.6011   1
 -10   3   3 170.808 6.94783  -2
 -10   3   1 170.808 6.94783   1
  -9   3   3 119.812 5.09161  -2
  -9   3   1 119.812 5.09161   1
  -8   3   2 718.472 25.7645  -2
  -8   3   1 718.472 25.7645   1
  -7   3   2 2224.84 58.0192  -2
  -7   3   1 2224.84 58.0192   1
  -6   3   2 1004.54 58.6988  -2
  -6   3   1 1004.54 58.6988   1
  -6   3   1 902.129 28.9158   1
  -6   3   1 1105.53 38.6715   2
  -5   3   1 258.778 6.83198  -2
  -5   3   1 258.778 6.83198   1
  -4   3   1 82.7062 3.58850   2
  -4   3   1 74.5228 3.14824   1
  -4   3   1 165.953 5.95960  -2
  -4   3   1 165.953 5.95960   1
  -3   3   1 45.9833 1.88038   1
  -3   3   1 4.56393 0.92230   2
   3   3   0 2353.38 64.4495  -2
  -3   3   1 2353.38 64.4495   1
   2   3   0 3490.89 66.9338  -2
  -2   3   1 3490.89 66.9338   1
  -1   3   1 302.676 6.09861   2
   1   3   1 734.545 30.6780  -2
  -1   3   1 734.545 30.6780   1
  -1   3   1 245.366 5.09411   1
   0   3   1 210.761 3.86059  -2
   0   3   1 210.761 3.86059   1
   1   3   1 511.737 10.0584   2
   1   3   1 398.845 7.92011   1
  -1   3   1 652.352 24.4507  -2
   1   3   1 652.352 24.4507   1
  -2   3   2 3266.73 63.4745  -2
   2   3   1 3266.73 63.4745   1
   3   3   1 14.3750 1.22614   2
   3   3   1 35.0674 1.98151   1
  -3   3   2 1555.12 45.3502  -2
   3   3   1 1555.12 45.3502   1
   4   3   1 284.786 11.0434   1
  -4   3   3 278.293 9.04426  -2
   4   3   1 278.293 9.04426   1
   4   3   1 349.680 9.48148   2
  -5   3   3 470.407 11.0549  -2
   5   3   1 470.407 11.0549   1
   6   3   1 1283.75 34.1089   2
   6   3   1 1084.68 35.1654   1
  -6   3   3 1363.79 121.384  -2
   6   3   1 1363.79 121.384   1
  -7   3   4 814.074 21.5678  -2
   7   3   1 814.074 21.5678   1
  -8   3   4 363.584 16.1443  -2
   8   3   1 363.584 16.1443   1
   8   3   1 459.360 21.0064   2
   8   3   1 340.677 45.4674   1
  -9   3   5 64.8293 3.85096  -2
   9   3   1 64.8293 3.85096   1
 -10   3   5 218.821 9.24808  -2
  10   3   1 218.821 9.24808   1
 -11   3   6 56.3194 5.84667  -2
  11   3   1 56.3194 5.84667   1
 -12   3   6 111.265 6.20169  -2
  12   3   1 111.265 6.20169   1
 -13   3   6 34.1939 13.9688  -2
  13   3   1 34.1939 13.9688   1
 -14   3   7 49.2528 4.24653  -2
  14   3   1 49.2528 4.24653   1
 -15   3   7 -4.8620 8.95836  -2
  15   3   1 -4.8620 8.95836   1
 -15   4   5 24.7936 14.9693  -2
 -15   4   1 24.7936 14.9693   1
 -14   4   5 4.92277 3.94241  -2
 -14   4   1 4.92277 3.94241   1
 -12   4   4 19.0707 2.72464  -2
 -12   4   1 19.0707 2.72464   1
 -11   4   4 10.0938 3.49818  -2
 -11   4   1 10.0938 3.49818   1
 -10   4   3 58.0826 4.43223  -2
 -10   4   1 58.0826 4.43223   1
  -9   4   3 23.5334 2.81668  -2
  -9   4   1 23.5334 2.81668   1
  -8   4   2 14.2379 3.94226  -2
  -8   4   1 14.2379 3.94226   1
  -8   4   1 -5.5281 11.1845   2
  -7   4   2 24.9937 2.39177  -2
  -7   4   1 24.9937 2.39177   1
  -6   4   1 14.6400 1.66962   2
  -6   4   1 10.6197 1.33607   1
  -6   4   2 24.3536 3.08798  -2
  -6   4   1 24.3536 3.08798   1
  -6   4   1 23.2681 9.53940  -2
  -6   4   1 23.2681 9.53940   1
  -5   4   1 211.174 6.13260  -2
  -5   4   1 211.174 6.13260   1
  -4   4   1 202.254 7.04460  -2
  -4   4   1 202.254 7.04460   1
  -4   4   1 109.990 5.63699   2
  -4   4   1 88.2576 5.19370   1
  -3   4   1 121.316 5.04767   2
   3   4   0 246.574 8.72103  -2
  -3   4   1 246.574 8.72103   1
  -3   4   1 91.8015 3.64344   1
   2   4   0 177.273 4.13046  -2
  -2   4   1 177.273 4.13046   1
  -1   4   1 5.39559 0.73484   1
  -1   4   1 7.33370 0.82589   2
   1   4   1 68.8960 3.78371  -2
  -1   4   1 68.8960 3.78371   1
   0   4   1 16.8848 0.86057  -2
   0   4   1 16.8848 0.86057   1
   1   4   1 48.9139 1.63572   1
  -1   4   1 50.6596 3.04588  -2
   1   4   1 50.6596 3.04588   1
   1   4   1 63.1355 1.90778   2
  -2   4   2 566.273 11.1161  -2
   2   4   1 566.273 11.1161   1
   3   4   1 86.5642 4.30577   1
   3   4   1 98.9821 4.05088   2
  -3   4   2 92.3165 3.94222  -2
   3   4   1 92.3165 3.94222   1
  -4   4   3 170.532 5.89893  -2
   4   4   1 170.532 5.89893   1
   4   4   1 142.939 6.96994   1
   4   4   1 174.024 6.70269   2
  -5   4   3 202.924 5.40046  -2
   5   4   1 202.924 5.40046   1
   6   4   1 56.0985 3.95319   1
   6   4   1 74.9645 3.42000   2
  -6   4   4 284.222 27.7474  -2
   6   4   1 284.222 27.7474   1
  -7   4   4 208.536 6.72404  -2
   7   4   1 208.536 6.72404   1
  -8   4   4 271.237 12.2482  -2
   8   4   1 271.237 12.2482   1
   8   4   1 140.806 9.30839   2
  -9   4   5 355.318 12.5137  -2
   9   4   1 355.318 12.5137   1
 -10   4   5 84.1097 5.05071  -2
  10   4   1 84.1097 5.05071   1
 -11   4   6 195.257 9.39913  -2
  11   4   1 195.257 9.39913   1
 -12   4   6 43.5341 4.23904  -2
  12   4   1 43.5341 4.23904   1
 -13   4   6 -9.7136 15.5666  -2
  13   4   1 -9.7136 15.5666   1
 -14   4   7 31.7363 3.91526  -2
  14   4   1 31.7363 3.91526   1
 -15   4   7 14.5892 9.02612  -2
  15   4   1 14.5892 9.02612   1
 -15   5   5 2.02564 12.1349  -2
 -15   5   1 2.02564 12.1349   1
 -14   5   5 46.1424 4.85858  -2
 -14   5   1 46.1424 4.85858   1
 -12   5   4 9.63194 2.91667  -2
 -12   5   1 9.63194 2.91667   1
 -11   5   4 100.104 5.58920  -2
 -11   5   1 100.104 5.58920   1
 -10   5   3 185.166 7.83480  -2
 -10   5   1 185.166 7.83480   1
  -9   5   3 92.9856 5.30157  -2
  -9   5   1 92.9856 5.30157   1
  -8   5   2 17.2027 3.51757  -2
  -8   5   1 17.2027 3.51757   1
  -7   5   2 535.216 14.4377  -2
  -7   5   1 535.216 14.4377   1
  -6   5   1 22.1252 2.63919   1
  -6   5   1 26.5467 2.31083   2
  -6   5   2 33.7339 4.01598  -2
  -6   5   1 33.7339 4.01598   1
  -6   5   1 54.6489 11.1545  -2
  -6   5   1 54.6489 11.1545   1
  -5   5   1 10.4894 1.82199  -2
  -5   5   1 10.4894 1.82199   1
  -4   5   1 -0.9672 1.34847   2
  -4   5   1 2.73658 1.93492  -2
  -4   5   1 2.73658 1.93492   1
  -4   5   1 -2.2256 1.92721   1
   3   5   0 533.971 16.9284  -2
  -3   5   1 533.971 16.9284   1
  -3   5   1 15.4340 1.81301   1
  -3   5   1 6.24416 1.50202   2
   2   5   0 1239.14 26.8690  -2
  -2   5   1 1239.14 26.8690   1
  -1   5   1 71.8214 2.28102   2
   1   5   1 102.286 4.70166  -2
  -1   5   1 102.286 4.70166   1
  -1   5   1 54.8827 2.20449   1
   0   5   1 294.615 7.03942  -2
   0   5   1 294.615 7.03942   1
   1   5   1 47.0388 2.18339   2
   1   5   1 38.0503 1.69037   1
  -1   5   1 106.784 8.49319  -2
   1   5   1 106.784 8.49319   1
  -2   5   2 141.310 3.99524  -2
   2   5   1 141.310 3.99524   1
  -3   5   2 358.173 12.3186  -2
   3   5   1 358.173 12.3186   1
   3   5   1 59.1111 3.92815   1
   3   5   1 73.1240 4.01148   2
  -4   5   3 563.032 15.0089  -2
   4   5   1 563.032 15.0089   1
   4   5   1 555.332 27.0074   2
   4   5   1 388.100 23.2362   1
  -5   5   3 931.089 22.3421  -2
   5   5   1 931.089 22.3421   1
  -6   5   4 337.309 13.1802  -2
   6   5   1 337.309 13.1802   1
   6   5   1 313.356 11.0140   2
   6   5   1 254.331 11.9573   1
  -7   5   4 198.985 7.38595  -2
   7   5   1 198.985 7.38595   1
  -8   5   4 33.6059 4.41986  -2
   8   5   1 33.6059 4.41986   1
  -9   5   5 557.324 17.5005  -2
   9   5   1 557.324 17.5005   1
 -10   5   5 2.73870 3.07550  -2
  10   5   1 2.73870 3.07550   1
 -11   5   6 98.0242 7.63538  -2
  11   5   1 98.0242 7.63538   1
 -12   5   6 53.3291 4.63292  -2
  12   5   1 53.3291 4.63292   1
 -14   5   7 29.2054 4.83960  -2
  14   5   1 29.2054 4.83960   1
 -15   5   7 2.46524 11.6399  -2
  15   5   1 2.46524 11.6399   1
 -15   6   5 42.4831 9.50649  -2
 -15   6   1 42.4831 9.50649   1
 -14   6   5 16.8227 4.95762  -2
 -14   6   1 16.8227 4.95762   1
 -12   6   4 81.0137 5.71372  -2
 -12   6   1 81.0137 5.71372   1
 -11   6   4 118.210 7.27044  -2
 -11   6   1 118.210 7.27044   1
 -10   6   3 61.3932 4.80522  -2
 -10   6   1 61.3932 4.80522   1
  -9   6   3 929.172 26.9820  -2
  -9   6   1 929.172 26.9820   1
  -8   6   2 83.5759 6.23034  -2
  -8   6   1 83.5759 6.23034   1
  -8   6   1 6.40277 1.93397   2
  -7   6   2 47.8257 2.38320  -2
  -7   6   1 47.8257 2.38320   1
  -6   6   1 42.2976 4.03472   2
  -6   6   1 32.9597 3.51379   1
  -6   6   2 149.568 18.1552  -2
  -6   6   1 149.568 18.1552   1
  -5   6   1 1542.91 36.0505  -2
  -5   6   1 1542.91 36.0505   1
  -4   6   1 80.5743 3.71979  -2
  -4   6   1 80.5743 3.71979   1
   3   6   0 39.9016 2.72671  -2
  -3   6   1 39.9016 2.72671   1
  -3   6   1 45.5387 4.81988   2
  -3   6   1 44.9517 6.19894   1
   2   6   0 67.9938 2.64989  -2
  -2   6   1 67.9938 2.64989   1
  -1   6   1 958.092 26.3960   2
  -1   6   1 736.111 22.2834   1
   1   6   1 1637.57 78.4628  -2
  -1   6   1 1637.57 78.4628   1
   0   6   1 836.249 17.5605  -2
   0   6   1 836.249 17.5605   1
   1   6   1 729.654 21.1410   1
   1   6   1 940.491 28.5326   2
  -1   6   1 1700.14 79.8456  -2
   1   6   1 1700.14 79.8456   1
  -2   6   2 190.209 5.21478  -2
   2   6   1 190.209 5.21478   1
  -3   6   2 599.092 16.7152  -2
   3   6   1 599.092 16.7152   1
   3   6   1 568.038 35.1344   1
  -4   6   3 612.639 15.9789  -2
   4   6   1 612.639 15.9789   1
  -5   6   3 2600.31 60.0883  -2
   5   6   1 2600.31 60.0883   1
   6   6   1 64.2395 4.91616   1
   6   6   1 81.7189 4.01371   2
  -6   6   4 439.722 26.8394  -2
   6   6   1 439.722 26.8394   1
  -7   6   4 286.617 10.2132  -2
   7   6   1 286.617 10.2132   1
  -8   6   4 249.074 9.70151  -2
   8   6   1 249.074 9.70151   1
  -9   6   5 611.720 17.5711  -2
   9   6   1 611.720 17.5711   1
 -10   6   5 46.9512 3.74738  -2
  10   6   1 46.9512 3.74738   1
 -11   6   6 29.5910 8.47831  -2
  11   6   1 29.5910 8.47831   1
 -12   6   6 29.4301 4.23405  -2
  12   6   1 29.4301 4.23405   1
 -13   6   6 24.8608 17.1486  -2
  13   6   1 24.8608 17.1486   1
 -14   6   7 21.3839 4.16942  -2
  14   6   1 21.3839 4.16942   1
 -14   7   5 12.8759 3.79557  -2
 -14   7   1 12.8759 3.79557   1
 -13   7   4 17.3632 13.7521  -2
 -13   7   1 17.3632 13.7521   1
 -12   7   4 39.6756 4.13329  -2
 -12   7   1 39.6756 4.13329   1
 -11   7   4 11.9016 4.85405  -2
 -11   7   1 11.9016 4.85405   1
 -10   7   3 145.630 6.46719  -2
 -10   7   1 145.630 6.46719   1
  -9   7   3 105.893 5.51341  -2
  -9   7   1 105.893 5.51341   1
  -8   7   2 158.113 6.30651  -2
  -8   7   1 158.113 6.30651   1
  -7   7   2 17.2625 1.98696  -2
  -7   7   1 17.2625 1.98696   1
  -6   7   1 44.9972 7.13115   1
  -6   7   1 50.1704 6.16521   2
  -6   7   2 56.5993 9.28860  -2
  -6   7   1 56.5993 9.28860   1
  -5   7   1 39.3985 2.43348  -2
  -5   7   1 39.3985 2.43348   1
  -4   7   1 114.218 4.95158  -2
  -4   7   1 114.218 4.95158   1
   3   7   0 166.654 6.07504  -2
  -3   7   1 166.654 6.07504   1
   2   7   0 82.4422 4.12584  -2
  -2   7   1 82.4422 4.12584   1
  -1   7   1 165.013 5.95575   2
  -1   7   1 119.302 5.01883   1
   1   7   1 152.988 9.50558  -2
  -1   7   1 152.988 9.50558   1
   1   7   0 144.456 15.9763  -2
  -1   7   1 144.456 15.9763   1
   0   7   1 38.9711 1.72352  -2
   0   7   1 38.9711 1.72352   1
   1   7   1 20.3827 2.32649   2
   1   7   1 20.2800 1.85189   1
  -1   7   1 177.368 11.4855  -2
   1   7   1 177.368 11.4855   1
  -2   7   2 35.0499 2.52463  -2
   2   7   1 35.0499 2.52463   1
  -3   7   2 63.8437 3.10409  -2
   3   7   1 63.8437 3.10409   1
  -4   7   3 91.8324 3.95315  -2
   4   7   1 91.8324 3.95315   1
  -5   7   3 5.89354 1.80794  -2
   5   7   1 5.89354 1.80794   1
   6   7   1 25.3503 6.30127   1
  -6   7   4 76.6440 12.6531  -2
   6   7   1 76.6440 12.6531   1
   6   7   1 31.8815 3.98905   2
  -7   7   4 173.924 6.29668  -2
   7   7   1 173.924 6.29668   1
  -8   7   4 200.317 6.90875  -2
   8   7   1 200.317 6.90875   1
  -9   7   5 145.768 6.86634  -2
   9   7   1 145.768 6.86634   1
 -10   7   5 17.0388 3.76016  -2
  10   7   1 17.0388 3.76016   1
 -11   7   6 54.5926 12.6319  -2
  11   7   1 54.5926 12.6319   1
 -12   7   6 193.129 7.19737  -2
  12   7   1 193.129 7.19737   1
 -13   7   6 24.7621 10.0557  -2
  13   7   1 24.7621 10.0557   1
 -14   7   7 33.6614 5.62486  -2
  14   7   1 33.6614 5.62486   1
 -14   8   5 10.3093 5.79952  -2
 -14   8   1 10.3093 5.79952   1
 -13   8   4 -4.8750 9.27154  -2
 -13   8   1 -4.8750 9.27154   1
 -12   8   4 65.8967 4.87483  -2
 -12   8   1 65.8967 4.87483   1
 -11   8   4 38.2429 6.21268  -2
 -11   8   1 38.2429 6.21268   1
 -10   8   3 35.5647 4.09414  -2
 -10   8   1 35.5647 4.09414   1
  -9   8   3 198.845 7.68215  -2
  -9   8   1 198.845 7.68215   1
  -8   8   2 74.0550 4.75968  -2
  -8   8   1 74.0550 4.75968   1
  -7   8   2 269.307 8.82978  -2
  -7   8   1 269.307 8.82978   1
  -6   8   1 136.373 13.3049   2
  -6   8   2 229.999 15.7834  -2
  -6   8   1 229.999 15.7834   1
  -6   8   1 91.3217 18.0946   1
  -5   8   1 223.469 9.04102  -2
  -5   8   1 223.469 9.04102   1
  -4   8   1 79.5146 3.94064  -2
  -4   8   1 79.5146 3.94064   1
   3   8   0 600.650 16.8085  -2
  -3   8   1 600.650 16.8085   1
   2   8   0 774.226 20.3711  -2
  -2   8   1 774.226 20.3711   1
  -1   8   1 57.4888 3.14257   2
  -1   8   1 42.4287 3.11627   1
   1   8   1 38.1476 4.42152  -2
  -1   8   1 38.1476 4.42152   1
   1   8   0 112.504 13.7179  -2
  -1   8   1 112.504 13.7179   1
   0   8   1 459.499 11.2240  -2
   0   8   1 459.499 11.2240   1
   1   8   1 3.04503 1.85186   2
   1   8   1 3.11570 1.84611   1
  -1   8   1 56.6429 5.78330  -2
   1   8   1 56.6429 5.78330   1
  -2   8   2 399.542 10.1787  -2
   2   8   1 399.542 10.1787   1
  -3   8   2 107.978 4.21806  -2
   3   8   1 107.978 4.21806   1
  -4   8   3 78.5751 3.81264  -2
   4   8   1 78.5751 3.81264   1
  -5   8   3 215.737 9.19654  -2
   5   8   1 215.737 9.19654   1
  -6   8   4 69.0884 9.23182  -2
   6   8   1 69.0884 9.23182   1
   6   8   1 66.9191 20.5007   1
  -7   8   4 133.292 5.49010  -2
   7   8   1 133.292 5.49010   1
  -8   8   4 98.0081 5.24587  -2
   8   8   1 98.0081 5.24587   1
   8   8   1 99.4182 27.9872   1
  -9   8   5 49.1646 4.37819  -2
   9   8   1 49.1646 4.37819   1
 -10   8   5 83.0608 5.11930  -2
  10   8   1 83.0608 5.11930   1
 -11   8   6 66.0419 6.93967  -2
  11   8   1 66.0419 6.93967   1
 -12   8   6 48.1645 3.88715  -2
  12   8   1 48.1645 3.88715   1
 -13   8   6 24.3839 15.0555  -2
  13   8   1 24.3839 15.0555   1
 -14   8   7 -4.2174 8.02602  -2
  14   8   1 -4.2174 8.02602   1
 -13   9   4 13.7734 16.8388  -2
 -13   9   1 13.7734 16.8388   1
 -12   9   4 97.0424 5.29389  -2
 -12   9   1 97.0424 5.29389   1
 -11   9   4 82.4361 9.38505  -2
 -11   9   1 82.4361 9.38505   1
 -10   9   3 122.756 8.42634  -2
 -10   9   1 122.756 8.42634   1
  -9   9   3 11.7319 2.78375  -2
  -9   9   1 11.7319 2.78375   1
  -8   9   2 96.9438 5.89591  -2
  -8   9   1 96.9438 5.89591   1
  -7   9   2 308.656 9.64792  -2
  -7   9   1 308.656 9.64792   1
  -6   9   2 518.713 22.8880  -2
  -6   9   1 518.713 22.8880   1
  -5   9   1 176.318 6.45650  -2
  -5   9   1 176.318 6.45650   1
  -4   9   1 644.951 21.7967  -2
  -4   9   1 644.951 21.7967   1
   3   9   0 475.625 20.0072  -2
  -3   9   1 475.625 20.0072   1
   2   9   0 781.685 24.1075  -2
  -2   9   1 781.685 24.1075   1
  -1   9   1 98.9388 5.74407   2
   1   9   1 128.379 6.96665  -2
  -1   9   1 128.379 6.96665   1
   1   9   0 728.283 44.6519  -2
  -1   9   1 728.283 44.6519   1
  -1   9   1 79.5812 5.82925   1
   0   9   1 950.829 22.2310  -2
   0   9   1 950.829 22.2310   1
   1   9   1 58.1869 5.01107   2
  -1   9   1 131.986 6.39533  -2
   1   9   1 131.986 6.39533   1
   1   9   1 41.3599 4.32291   1
  -2   9   2 1125.49 31.9626  -2
   2   9   1 1125.49 31.9626   1
  -3   9   2 1089.04 41.0081  -2
   3   9   1 1089.04 41.0081   1
  -4   9   3 579.157 25.0368  -2
   4   9   1 579.157 25.0368   1
  -5   9   3 162.470 7.28722  -2
   5   9   1 162.470 7.28722   1
  -6   9   4 357.447 22.8422  -2
   6   9   1 357.447 22.8422   1
  -7   9   4 540.683 14.2879  -2
   7   9   1 540.683 14.2879   1
  -8   9   4 51.1201 5.63010  -2
   8   9   1 51.1201 5.63010   1
   8   9   1 16.9196 15.1343   1
  -9   9   5 40.7881 4.03483  -2
   9   9   1 40.7881 4.03483   1
 -10   9   5 64.4708 4.99352  -2
  10   9   1 64.4708 4.99352   1
 -11   9   6 49.3214 6.37205  -2
  11   9   1 49.3214 6.37205   1
 -12   9   6 99.0603 5.54127  -2
  12   9   1 99.0603 5.54127   1
 -13   9   6 48.4379 11.8740  -2
  13   9   1 48.4379 11.8740   1
 -12  10   4 14.3544 4.06719  -2
 -12  10   1 14.3544 4.06719   1
 -11  10   4 78.5553 6.82461  -2
 -11  10   1 78.5553 6.82461   1
 -10  10   3 126.525 7.90864  -2
 -10  10   1 126.525 7.90864   1
  -9  10   3 32.7183 4.52199  -2
  -9  10   1 32.7183 4.52199   1
  -8  10   2 46.4988 6.77923  -2
  -8  10   1 46.4988 6.77923   1
  -7  10   2 61.2046 3.63778  -2
  -7  10   1 61.2046 3.63778   1
  -6  10   2 121.724 10.8585  -2
  -6  10   1 121.724 10.8585   1
  -5  10   1 118.864 4.93198  -2
  -5  10   1 118.864 4.93198   1
  -4  10   1 7.99209 3.63909  -2
  -4  10   1 7.99209 3.63909   1
   3  10   0 290.751 11.3329  -2
  -3  10   1 290.751 11.3329   1
   2  10   0 173.350 6.78175  -2
  -2  10   1 173.350 6.78175   1
   1  10   1 327.123 20.1827  -2
  -1  10   1 327.123 20.1827   1
   1  10   0 238.120 17.7955  -2
  -1  10   1 238.120 17.7955   1
  -1  10   1 145.238 29.2400   1
   0  10   1 266.917 7.56256  -2
   0  10   1 266.917 7.56256   1
  -1  10   1 346.317 19.1144  -2
   1  10   1 346.317 19.1144   1
   1  10   1 208.774 36.6140   2
  -2  10   2 50.7007 3.74594  -2
   2  10   1 50.7007 3.74594   1
  -3  10   2 15.8817 3.08984  -2
   3  10   1 15.8817 3.08984   1
  -4  10   3 249.741 10.3601  -2
   4  10   1 249.741 10.3601   1
  -5  10   3 74.3055 4.32372  -2
   5  10   1 74.3055 4.32372   1
  -6  10   4 -0.8490 7.25425  -2
   6  10   1 -0.8490 7.25425   1
  -7  10   4 43.3837 2.77618  -2
   7  10   1 43.3837 2.77618   1
  -8  10   4 97.3341 7.31537  -2
   8  10   1 97.3341 7.31537   1
  -9  10   5 81.7517 5.27250  -2
   9  10   1 81.7517 5.27250   1
 -10  10   5 202.196 8.71985  -2
  10  10   1 202.196 8.71985   1
 -11  10   6 18.3448 5.98792  -2
  11  10   1 18.3448 5.98792   1
 -12  10   6 6.11118 3.56391  -2
  12  10   1 6.11118 3.56391   1
 -12  11   4 3.30307 3.48479  -2
 -12  11   1 3.30307 3.48479   1
 -11  11   4 7.77417 5.16787  -2
 -11  11   1 7.77417 5.16787   1
 -10  11   3 70.5346 5.75226  -2
 -10  11   1 70.5346 5.75226   1
  -9  11   3 4.61792 3.48663  -2
  -9  11   1 4.61792 3.48663   1
  -8  11   2 -1.6792 4.69871  -2
  -8  11   1 -1.6792 4.69871   1
  -7  11   2 46.5679 3.06064  -2
  -7  11   1 46.5679 3.06064   1
  -6  11   2 5.57113 48.8629  -2
  -6  11   1 5.57113 48.8629   1
  -5  11   1 50.7920 3.45019  -2
  -5  11   1 50.7920 3.45019   1
  -4  11   1 627.746 21.7061  -2
  -4  11   1 627.746 21.7061   1
   3  11   0 5.80249 3.12885  -2
  -3  11   1 5.80249 3.12885   1
   2  11   0 42.9665 3.39886  -2
  -2  11   1 42.9665 3.39886   1
   1  11   1 105.638 5.77883  -2
  -1  11   1 105.638 5.77883   1
   0  11   1 830.395 20.6323  -2
   0  11   1 830.395 20.6323   1
  -1  11   1 69.5886 8.51352  -2
   1  11   1 69.5886 8.51352   1
  -2  11   2 129.800 5.54804  -2
   2  11   1 129.800 5.54804   1
  -3  11   2 135.665 6.27722  -2
   3  11   1 135.665 6.27722   1
  -4  11   3 20.1386 3.68799  -2
   4  11   1 20.1386 3.68799   1
  -5  11   3 36.3654 3.82706  -2
   5  11   1 36.3654 3.82706   1
  -6  11   4 27.5460 51.5273  -2
   6  11   1 27.5460 51.5273   1
  -7  11   4 83.2899 3.75221  -2
   7  11   1 83.2899 3.75221   1
  -8  11   4 9.02809 6.41894  -2
   8  11   1 9.02809 6.41894   1
  -9  11   5 1.33041 4.11273  -2
   9  11   1 1.33041 4.11273   1
 -10  11   5 4.62988 5.21196  -2
  10  11   1 4.62988 5.21196   1
 -11  11   6 45.0278 5.97187  -2
  11  11   1 45.0278 5.97187   1
 -12  11   6 11.7136 4.13604  -2
  12  11   1 11.7136 4.13604   1
 -11  12   4 39.4994 8.59475  -2
 -11  12   1 39.4994 8.59475   1
 -10  12   3 20.1825 4.64664  -2
 -10  12   1 20.1825 4.64664   1
  -9  12   3 213.603 9.63653  -2
  -9  12   1 213.603 9.63653   1
  -8  12   2 209.689 13.8928  -2
  -8  12   1 209.689 13.8928   1
  -7  12   2 203.576 7.96155  -2
  -7  12   1 203.576 7.96155   1
  -5  12   1 264.521 8.65960  -2
  -5  12   1 264.521 8.65960   1
  -4  12   1 91.6474 5.34861  -2
  -4  12   1 91.6474 5.34861   1
   3  12   0 186.327 7.72585  -2
  -3  12   1 186.327 7.72585   1
   2  12   0 291.022 10.1920  -2
  -2  12   1 291.022 10.1920   1
   1  12   1 159.959 9.69883  -2
  -1  12   1 159.959 9.69883   1
   1  12   0 197.739 22.9200  -2
  -1  12   1 197.739 22.9200   1
   0  12   1 63.2606 3.13214  -2
   0  12   1 63.2606 3.13214   1
  -1  12   1 174.586 13.8434  -2
   1  12   1 174.586 13.8434   1
  -1  12   2 52.2607 13.3103  -2
   1  12   1 52.2607 13.3103   1
  -2  12   2 101.311 4.61767  -2
   2  12   1 101.311 4.61767   1
  -3  12   2 223.531 8.34755  -2
   3  12   1 223.531 8.34755   1
  -4  12   3 125.611 5.89788  -2
   4  12   1 125.611 5.89788   1
  -5  12   3 188.063 6.53781  -2
   5  12   1 188.063 6.53781   1
  -7  12   4 49.0561 3.46553  -2
   7  12   1 49.0561 3.46553   1
  -8  12   4 10.5080 9.38200  -2
   8  12   1 10.5080 9.38200   1
  -9  12   5 167.016 7.98800  -2
   9  12   1 167.016 7.98800   1
 -10  12   5 23.0234 4.08865  -2
  10  12   1 23.0234 4.08865   1
 -11  12   6 12.4647 7.20788  -2
  11  12   1 12.4647 7.20788   1
 -11  13   4 -2.6612 11.4542  -2
 -11  13   1 -2.6612 11.4542   1
 -10  13   3 11.9291 4.04468  -2
 -10  13   1 11.9291 4.04468   1
  -9  13   3 4.73832 4.32596  -2
  -9  13   1 4.73832 4.32596   1
  -8  13   2 15.0714 8.55544  -2
  -8  13   1 15.0714 8.55544   1
  -7  13   2 84.2302 4.24964  -2
  -7  13   1 84.2302 4.24964   1
  -5  13   1 48.7706 3.62953  -2
  -5  13   1 48.7706 3.62953   1
  -4  13   1 1.71835 3.37826  -2
  -4  13   1 1.71835 3.37826   1
   3  13   0 65.7582 4.23869  -2
  -3  13   1 65.7582 4.23869   1
   2  13   0 102.984 5.10908  -2
  -2  13   1 102.984 5.10908   1
  -1  13   1 13.1240 13.5936   1
   1  13   1 194.818 14.6118  -2
  -1  13   1 194.818 14.6118   1
   1  13   0 10.7359 12.6704  -2
  -1  13   1 10.7359 12.6704   1
   0  13   1 2.42941 1.92270  -2
   0  13   1 2.42941 1.92270   1
  -1  13   1 187.918 9.94958  -2
   1  13   1 187.918 9.94958   1
   1  13   1 183.679 34.0476   2
  -2  13   2 219.099 8.08984  -2
   2  13   1 219.099 8.08984   1
  -3  13   2 171.196 8.51948  -2
   3  13   1 171.196 8.51948   1
  -4  13   3 43.6019 5.20524  -2
   4  13   1 43.6019 5.20524   1
  -5  13   3 6.23674 2.39251  -2
   5  13   1 6.23674 2.39251   1
  -6  13   4 61.6993 15.5807  -2
   6  13   1 61.6993 15.5807   1
  -7  13   4 95.9778 4.91066  -2
   7  13   1 95.9778 4.91066   1
  -8  13   4 149.980 11.8182  -2
   8  13   1 149.980 11.8182   1
  -9  13   5 19.2789 4.45970  -2
   9  13   1 19.2789 4.45970   1
 -10  13   5 39.6070 5.10022  -2
  10  13   1 39.6070 5.10022   1
  11  13   1 8.13121 5.91099   1
  11  13   1 12.8002 7.96037   2
 -10  14   3 9.54400 5.74209  -2
 -10  14   1 9.54400 5.74209   1
  -9  14   3 5.44130 4.28301  -2
  -9  14   1 5.44130 4.28301   1
  -8  14   2 3.19687 5.49685  -2
  -8  14   1 3.19687 5.49685   1
  -7  14   2 81.6087 4.29896  -2
  -7  14   1 81.6087 4.29896   1
  -5  14   1 50.1472 3.40963  -2
  -5  14   1 50.1472 3.40963   1
  -4  14   1 6.36410 5.34621  -2
  -4  14   1 6.36410 5.34621   1
   3  14   0 9.02965 4.21498  -2
  -3  14   1 9.02965 4.21498   1
   2  14   0 67.5266 5.57033  -2
  -2  14   1 67.5266 5.57033   1
   1  14   1 10.2276 11.2191  -2
  -1  14   1 10.2276 11.2191   1
  -1  14   1 17.4741 7.08445   1
   0  14   1 41.8472 3.50203  -2
   0  14   1 41.8472 3.50203   1
  -1  14   1 26.9121 6.92307  -2
   1  14   1 26.9121 6.92307   1
  -2  14   2 23.9232 3.66683  -2
   2  14   1 23.9232 3.66683   1
  -3  14   2 40.9478 5.04985  -2
   3  14   1 40.9478 5.04985   1
  -4  14   3 48.8764 6.17932  -2
   4  14   1 48.8764 6.17932   1
  -5  14   3 84.5304 5.60762  -2
   5  14   1 84.5304 5.60762   1
  -6  14   4 20.0336 12.4995  -2
   6  14   1 20.0336 12.4995   1
  -7  14   4 37.5389 3.30468  -2
   7  14   1 37.5389 3.30468   1
  -8  14   4 3.26463 8.74570  -2
   8  14   1 3.26463 8.74570   1
  -9  14   5 27.6929 4.28832  -2
   9  14   1 27.6929 4.28832   1
 -10  14   5 27.7071 8.03550  -2
  10  14   1 27.7071 8.03550   1
  -8  15   2 38.7207 6.20082  -2
  -8  15   1 38.7207 6.20082   1
  -7  15   2 39.6070 3.65083  -2
  -7  15   1 39.6070 3.65083   1
  -5  15   1 -2.0854 3.32403  -2
  -5  15   1 -2.0854 3.32403   1
  -4  15   1 318.458 23.3484  -2
  -4  15   1 318.458 23.3484   1
   3  15   0 118.250 6.72390  -2
  -3  15   1 118.250 6.72390   1
   2  15   0 91.5723 5.32819  -2
  -2  15   1 91.5723 5.32819   1
   1  15   1 49.7811 14.3361  -2
  -1  15   1 49.7811 14.3361   1
   0  15   1 383.528 12.2663  -2
   0  15   1 383.528 12.2663   1
  -1  15   1 70.3430 15.0006  -2
   1  15   1 70.3430 15.0006   1
  -2  15   2 82.5691 5.70635  -2
   2  15   1 82.5691 5.70635   1
  -3  15   2 176.877 12.8350  -2
   3  15   1 176.877 12.8350   1
  -4  15   3 121.651 8.99451  -2
   4  15   1 121.651 8.99451   1
  -5  15   3 9.13627 3.10689  -2
   5  15   1 9.13627 3.10689   1
   6  15   1 30.4673 9.94867   1
  -7  15   4 46.5454 3.79956  -2
   7  15   1 46.5454 3.79956   1
  -8  15   4 9.56604 5.85845  -2
   8  15   1 9.56604 5.85845   1
  -7  16   2 7.60684 3.73968  -2
  -7  16   1 7.60684 3.73968   1
  -5  16   1 37.0878 3.91457  -2
  -5  16   1 37.0878 3.91457   1
  -4  16   1 20.7353 7.53200  -2
  -4  16   1 20.7353 7.53200   1
   3  16   0 9.05347 4.86659  -2
  -3  16   1 9.05347 4.86659   1
   2  16   0 2.98971 3.21967  -2
  -2  16   1 2.98971 3.21967   1
   1  16   1 23.2925 8.52160  -2
  -1  16   1 23.2925 8.52160   1
   0  16   1 10.1579 2.02179  -2
   0  16   1 10.1579 2.02179   1
  -1  16   1 40.7974 9.32755  -2
   1  16   1 40.7974 9.32755   1
  -2  16   2 9.35978 3.35871  -2
   2  16   1 9.35978 3.35871   1
  -3  16   2 0.55977 4.47706  -2
   3  16   1 0.55977 4.47706   1
  -4  16   3 34.1867 7.84381  -2
   4  16   1 34.1867 7.84381   1
  -5  16   3 79.2934 4.66499  -2
   5  16   1 79.2934 4.66499   1
  -6  16   3 13.6247 15.2347  -2
   6  16   1 13.6247 15.2347   1
  -7  16   4 21.6643 4.18245  -2
   7  16   1 21.6643 4.18245   1
  -5  17   1 14.7008 4.23966  -2
  -5  17   1 14.7008 4.23966   1
  -4  17   1 33.4793 7.22349  -2
  -4  17   1 33.4793 7.22349   1
   3  17   0 10.0238 4.93089  -2
  -3  17   1 10.0238 4.93089   1
   2  17   0 3.89384 3.71343  -2
  -2  17   1 3.89384 3.71343   1
   1  17   1 7.07901 11.8491  -2
  -1  17   1 7.07901 11.8491   1
   0  17   1 71.2956 3.61054  -2
   0  17   1 71.2956 3.61054   1
  -1  17   1 6.00350 7.97920  -2
   1  17   1 6.00350 7.97920   1
  -2  17   2 7.44072 3.48208  -2
   2  17   1 7.44072 3.48208   1
  -3  17   2 4.81850 4.88825  -2
   3  17   1 4.81850 4.88825   1
  -4  17   3 11.6721 6.92155  -2
   4  17   1 11.6721 6.92155   1
  -5  17   3 14.7573 4.03848  -2
   5  17   1 14.7573 4.03848   1
   1  18   1 71.2613 17.1083  -2
  -1  18   1 71.2613 17.1083   1
   0  18   1 6.34040 4.45962  -2
   0  18   1 6.34040 4.45962   1
  -1  18   1 80.4457 15.7042  -2
   1  18   1 80.4457 15.7042   1
 -16   0   5 -0.2178 11.6240  -2
 -16   0   2 -0.2178 11.6240   1
 -16   0   2 7.83910 7.88417   1
 -16   0   2 7.46743 11.7406   2
 -15   0   4 3.07826 10.1946  -2
 -15   0   2 3.07826 10.1946   1
 -14   0   4 477.697 26.8641  -2
 -14   0   2 477.697 26.8641   1
 -12   0   3 4.55631 3.87750  -2
 -12   0   2 4.55631 3.87750   1
 -11   0   3 13.6610 5.58873  -2
 -11   0   2 13.6610 5.58873   1
 -10   0   2 1345.38 54.0915  -2
 -10   0   2 1345.38 54.0915   1
  -9   0   2 53.3208 7.16898  -2
  -9   0   2 53.3208 7.16898   1
  -8   0   2 509.726 40.7841   2
  -8   0   1 455.016 20.1940  -2
  -8   0   2 455.016 20.1940   1
  -8   0   2 457.219 36.8129   1
  -7   0   1 32.1869 1.86091  -2
  -7   0   2 32.1869 1.86091   1
  -6   0   2 946.047 33.0031   1
  -6   0   2 1119.90 38.3773   2
  -6   0   1 894.327 71.9279  -2
  -6   0   2 894.327 71.9279   1
   5   0   0 17.5371 1.80993  -2
  -5   0   2 17.5371 1.80993   1
   4   0   0 8024.86 365.915  -2
  -4   0   2 8024.86 365.915   1
  -4   0   2 4844.58 140.058   1
  -4   0   2 6012.17 174.420   2
  -3   0   2 0.05749 0.70070   2
   3   0   1 67.1399 3.86078  -2
  -3   0   2 67.1399 3.86078   1
  -3   0   2 -0.6515 0.90019   1
  -2   0   2 193.828 6.61264   2
  -2   0   2 155.225 5.87997   1
   2   0   1 160.171 6.29239  -2
  -2   0   2 160.171 6.29239   1
  -1   0   2 0.80645 0.43521   2
  -1   0   2 1.04541 0.34930   1
   1   0   2 0.96002 0.50968   1
   1   0   2 2.33687 0.46046   2
  -1   0   2 9.16551 3.92347  -2
   1   0   2 9.16551 3.92347   1
  -2   0   3 101.521 3.37720  -2
   2   0   2 101.521 3.37720   1
   2   0   2 91.3262 6.01064   1
   2   0   2 115.049 6.78659   2
  -3   0   3 24.7305 2.32427  -2
   3   0   2 24.7305 2.32427   1
   3   0   2 2.36698 0.81297   2
   3   0   2 0.86455 0.98053   1
   4   0   2 180.185 7.86777   2
  -4   0   4 491.929 20.6985  -2
   4   0   2 491.929 20.6985   1
   4   0   2 123.815 6.83566   1
  -5   0   4 4.32997 1.54518  -2
   5   0   2 4.32997 1.54518   1
   6   0   2 31.3029 2.35862   2
  -6   0   5 31.3680 3.47178  -2
   6   0   2 31.3680 3.47178   1
  -6   0   4 126.396 16.6128  -2
   6   0   2 126.396 16.6128   1
   6   0   2 23.8075 2.76832   1
  -7   0   5 55.0079 2.99651  -2
   7   0   2 55.0079 2.99651   1
  -8   0   5 402.421 25.9991  -2
   8   0   2 402.421 25.9991   1
   8   0   2 518.226 42.7500   2
  -9   0   6 -2.7024 5.13339  -2
   9   0   2 -2.7024 5.13339   1
 -10   0   6 204.830 10.8954  -2
  10   0   2 204.830 10.8954   1
 -11   0   7 91.0965 11.5564  -2
  11   0   2 91.0965 11.5564   1
 -12   0   7 366.116 17.9074  -2
  12   0   2 366.116 17.9074   1
 -14   0   8 28.1289 5.10521  -2
  14   0   2 28.1289 5.10521   1
 -15   0   8 3.99849 8.09524  -2
  15   0   2 3.99849 8.09524   1
 -15   1   4 13.4923 6.05877  -2
 -15   1   2 13.4923 6.05877   1
 -14   1   4 83.5919 5.43774  -2
 -14   1   2 83.5919 5.43774   1
 -12   1   3 53.5066 3.67066  -2
 -12   1   2 53.5066 3.67066   1
 -11   1   3 42.0079 5.45326  -2
 -11   1   2 42.0079 5.45326   1
 -10   1   2 -1.3818 1.83439  -2
 -10   1   2 -1.3818 1.83439   1
  -9   1   2 7.74157 2.25089  -2
  -9   1   2 7.74157 2.25089   1
  -8   1   1 210.281 7.66655  -2
  -8   1   2 210.281 7.66655   1
  -8   1   2 205.163 16.8030   2
  -8   1   2 193.787 16.7046   1
  -7   1   1 191.848 5.55054  -2
  -7   1   2 191.848 5.55054   1
  -6   1   2 268.043 7.88172   2
  -6   1   2 233.578 5.82678   1
  -6   1   1 286.116 25.1961  -2
  -6   1   2 286.116 25.1961   1
   5   1   0 16.5053 1.26266  -2
  -5   1   2 16.5053 1.26266   1
   4   1   0 556.611 15.1734  -2
  -4   1   2 556.611 15.1734   1
  -4   1   2 541.638 13.0869   1
  -4   1   2 678.507 16.2611   2
  -3   1   2 118.216 3.28352   2
  -3   1   2 98.0282 2.74642   1
   3   1   1 312.443 9.91158  -2
  -3   1   2 312.443 9.91158   1
  -2   1   2 28.5614 1.40237   2
   2   1   1 97.4840 2.65695  -2
  -2   1   2 97.4840 2.65695   1
  -2   1   2 20.8496 1.22040   1
  -1   1   2 53.3775 1.09231   2
  -1   1   2 45.8524 1.04539   1
   0   1   2 627.015 12.6248  -2
   0   1   2 627.015 12.6248   1
   1   1   2 106.942 2.04679   1
   1   1   2 125.978 2.42238   2
   2   1   2 464.511 28.3783   1
   2   1   2 649.670 29.3434   2
  -2   1   3 1458.23 26.9231  -2
   2   1   2 1458.23 26.9231   1
   3   1   2 416.877 12.4895   1
   3   1   2 506.632 12.6433   2
  -3   1   3 419.499 11.8432  -2
   3   1   2 419.499 11.8432   1
  -4   1   4 435.517 14.0400  -2
   4   1   2 435.517 14.0400   1
   4   1   2 158.050 4.52598   2
   4   1   2 130.558 4.67706   1
  -5   1   4 193.244 5.56122  -2
   5   1   2 193.244 5.56122   1
   6   1   2 141.017 4.80441   2
  -6   1   4 143.868 12.7218  -2
   6   1   2 143.868 12.7218   1
  -6   1   5 373.417 23.8744  -2
   6   1   2 373.417 23.8744   1
   6   1   2 112.309 4.88473   1
  -7   1   5 334.737 9.10635  -2
   7   1   2 334.737 9.10635   1
   8   1   2 129.346 29.5504   1
   8   1   2 135.265 8.69512   2
  -8   1   5 339.903 12.4926  -2
   8   1   2 339.903 12.4926   1
  -9   1   6 214.162 7.04738  -2
   9   1   2 214.162 7.04738   1
 -10   1   6 378.041 12.7244  -2
  10   1   2 378.041 12.7244   1
 -11   1   7 30.9293 6.28954  -2
  11   1   2 30.9293 6.28954   1
  11   1   2 31.6090 3.40219   2
 -12   1   7 183.073 7.57289  -2
  12   1   2 183.073 7.57289   1
 -14   1   8 62.4206 4.61162  -2
  14   1   2 62.4206 4.61162   1
 -15   1   8 6.00871 5.92700  -2
  15   1   2 6.00871 5.92700   1
 -15   2   4 3.89657 5.57929  -2
 -15   2   2 3.89657 5.57929   1
 -14   2   4 54.4795 4.88760  -2
 -14   2   2 54.4795 4.88760   1
 -12   2   3 -1.3771 2.04294  -2
 -12   2   2 -1.3771 2.04294   1
 -11   2   3 21.6499 3.77525  -2
 -11   2   2 21.6499 3.77525   1
 -10   2   2 161.817 6.02714  -2
 -10   2   2 161.817 6.02714   1
  -9   2   2 13.3284 2.30133  -2
  -9   2   2 13.3284 2.30133   1
  -8   2   1 196.228 8.91492  -2
  -8   2   2 196.228 8.91492   1
  -8   2   2 39.6982 5.35988   2
  -8   2   2 31.9643 4.89001   1
  -7   2   1 42.2395 2.07330  -2
  -7   2   2 42.2395 2.07330   1
  -6   2   2 27.8672 2.25555   1
  -6   2   2 35.9067 2.81792   2
  -6   2   1 218.497 15.1115  -2
  -6   2   2 218.497 15.1115   1
   5   2   0 35.0131 1.57969  -2
  -5   2   2 35.0131 1.57969   1
   4   2   0 17.0728 1.95271  -2
  -4   2   2 17.0728 1.95271   1
  -4   2   2 5.78155 0.88154   1
  -4   2   2 6.26191 1.02945   2
  -3   2   2 1382.90 31.3918   2
  -3   2   2 1139.71 25.9314   1
   3   2   1 1243.38 31.0812  -2
  -3   2   2 1243.38 31.0812   1
  -2   2   2 883.252 41.2676   1
   2   2   1 3692.54 73.9794  -2
  -2   2   2 3692.54 73.9794   1
  -2   2   2 1170.54 41.7204   2
  -1   2   2 253.363 4.91065   1
   1   2   2 435.100 20.8829  -2
  -1   2   2 435.100 20.8829   1
  -1   2   2 311.333 5.86624   2
   0   2   2 10.1281 0.49849  -2
   0   2   2 10.1281 0.49849   1
   1   2   2 189.667 3.63226   2
   1   2   2 154.382 3.16059   1
  -1   2   2 504.346 40.4819  -2
   1   2   2 504.346 40.4819   1
  -2   2   3 2749.68 49.5282  -2
   2   2   2 2749.68 49.5282   1
   2   2   2 155.618 9.12417   2
   3   2   2 761.878 18.3235   1
   3   2   2 913.634 22.9748   2
  -3   2   3 890.203 24.6430  -2
   3   2   2 890.203 24.6430   1
  -4   2   4 337.310 11.5974  -2
   4   2   2 337.310 11.5974   1
   4   2   2 291.531 9.77683   1
   4   2   2 379.824 12.0436   2
  -5   2   4 443.336 12.6343  -2
   5   2   2 443.336 12.6343   1
   6   2   2 116.251 4.95833   1
   6   2   2 127.471 3.96585   2
  -6   2   5 359.393 23.2883  -2
   6   2   2 359.393 23.2883   1
  -6   2   4 359.409 25.1721  -2
   6   2   2 359.409 25.1721   1
  -7   2   5 301.349 8.03482  -2
   7   2   2 301.349 8.03482   1
  -8   2   5 111.735 5.27202  -2
   8   2   2 111.735 5.27202   1
   8   2   2 14.0004 2.04335   2
  -9   2   6 53.8902 3.33065  -2
   9   2   2 53.8902 3.33065   1
 -10   2   6 52.2156 3.78272  -2
  10   2   2 52.2156 3.78272   1
 -11   2   7 65.8201 5.03664  -2
  11   2   2 65.8201 5.03664   1
 -12   2   7 128.089 6.10658  -2
  12   2   2 128.089 6.10658   1
 -14   2   8 61.9320 4.94709  -2
  14   2   2 61.9320 4.94709   1
 -15   2   8 47.2018 8.48300  -2
  15   2   2 47.2018 8.48300   1
 -15   3   4 96.8617 7.60039  -2
 -15   3   2 96.8617 7.60039   1
 -14   3   4 9.94009 3.73432  -2
 -14   3   2 9.94009 3.73432   1
 -12   3   3 550.543 18.8305  -2
 -12   3   2 550.543 18.8305   1
 -11   3   3 554.134 21.8929  -2
 -11   3   2 554.134 21.8929   1
 -10   3   2 165.938 6.47074  -2
 -10   3   2 165.938 6.47074   1
  -9   3   2 24.5224 2.90969  -2
  -9   3   2 24.5224 2.90969   1
  -8   3   1 823.770 29.0798  -2
  -8   3   2 823.770 29.0798   1
  -7   3   1 1838.40 44.4673  -2
  -7   3   2 1838.40 44.4673   1
  -6   3   2 28.5018 2.74023   2
  -6   3   2 18.3408 1.29120   1
  -6   3   1 994.668 84.6634  -2
  -6   3   2 994.668 84.6634   1
   5   3   0 89.9630 2.88431  -2
  -5   3   2 89.9630 2.88431   1
  -4   3   2 85.5546 3.24663   1
  -4   3   2 106.897 3.54301   2
   4   3   0 841.488 26.7108  -2
  -4   3   2 841.488 26.7108   1
   3   3   1 1275.79 35.4065  -2
  -3   3   2 1275.79 35.4065   1
  -3   3   2 1556.48 38.3324   2
  -3   3   2 1274.92 30.2001   1
   2   3   1 3991.86 78.5428  -2
  -2   3   2 3991.86 78.5428   1
  -1   3   2 389.074 7.55131   2
  -1   3   2 306.427 6.08147   1
   1   3   2 891.889 32.8067  -2
  -1   3   2 891.889 32.8067   1
   0   3   2 2756.21 45.7708  -2
   0   3   2 2756.21 45.7708   1
   1   3   2 598.901 11.7682   2
   1   3   2 474.943 9.10733   1
  -1   3   2 848.409 31.6725  -2
   1   3   2 848.409 31.6725   1
  -2   3   3 1429.75 27.2649  -2
   2   3   2 1429.75 27.2649   1
  -3   3   3 1293.53 38.9216  -2
   3   3   2 1293.53 38.9216   1
   3   3   2 1329.85 33.3939   1
   3   3   2 1656.90 42.5604   2
   4   3   2 1.61305 1.08341   1
  -4   3   4 124.757 5.02226  -2
   4   3   2 124.757 5.02226   1
   4   3   2 4.25673 1.19141   2
  -5   3   4 692.416 16.9807  -2
   5   3   2 692.416 16.9807   1
   6   3   2 94.6275 6.87293   1
   6   3   2 123.951 4.16526   2
  -6   3   5 146.336 11.7708  -2
   6   3   2 146.336 11.7708   1
  -6   3   4 200.360 22.4384  -2
   6   3   2 200.360 22.4384   1
  -7   3   5 464.077 12.3869  -2
   7   3   2 464.077 12.3869   1
  -8   3   5 315.528 13.6813  -2
   8   3   2 315.528 13.6813   1
   8   3   2 354.174 17.0175   2
  -9   3   6 134.799 5.99392  -2
   9   3   2 134.799 5.99392   1
 -10   3   6 39.2217 3.94621  -2
  10   3   2 39.2217 3.94621   1
 -11   3   7 78.5153 7.62597  -2
  11   3   2 78.5153 7.62597   1
 -12   3   7 8.78710 3.48160  -2
  12   3   2 8.78710 3.48160   1
 -13   3   7 -2.8192 15.1688  -2
  13   3   2 -2.8192 15.1688   1
 -14   3   8 4.97121 3.16479  -2
  14   3   2 4.97121 3.16479   1
 -15   3   8 17.9279 9.38943  -2
  15   3   2 17.9279 9.38943   1
 -15   4   4 43.6701 10.1689  -2
 -15   4   2 43.6701 10.1689   1
 -14   4   4 27.9800 4.26098  -2
 -14   4   2 27.9800 4.26098   1
 -12   4   3 4.76858 2.50818  -2
 -12   4   2 4.76858 2.50818   1
 -11   4   3 33.5196 4.85713  -2
 -11   4   2 33.5196 4.85713   1
 -10   4   2 127.062 6.12140  -2
 -10   4   2 127.062 6.12140   1
  -9   4   2 7.97135 2.52792  -2
  -9   4   2 7.97135 2.52792   1
  -8   4   2 -9.7018 12.3082   1
  -8   4   1 25.0126 4.77914  -2
  -8   4   2 25.0126 4.77914   1
  -7   4   1 29.1719 1.91933  -2
  -7   4   2 29.1719 1.91933   1
   6   4   0 26.2060 10.2098  -2
  -6   4   2 26.2060 10.2098   1
  -6   4   2 8.39749 1.65484   1
  -6   4   1 22.3125 3.41256  -2
  -6   4   2 22.3125 3.41256   1
  -6   4   2 16.7020 1.69328   2
   5   4   0 17.7487 1.57105  -2
  -5   4   2 17.7487 1.57105   1
  -4   4   2 19.5218 1.94200   1
  -4   4   2 25.9888 1.94634   2
   4   4   0 22.0384 2.41021  -2
  -4   4   2 22.0384 2.41021   1
  -3   4   2 6.29279 1.26734   1
  -3   4   2 8.62760 1.60939   2
   3   4   1 109.561 4.64199  -2
  -3   4   2 109.561 4.64199   1
   2   4   1 501.899 10.5365  -2
  -2   4   2 501.899 10.5365   1
  -1   4   2 590.776 12.3600   2
   1   4   2 855.751 31.2549  -2
  -1   4   2 855.751 31.2549   1
  -1   4   2 478.539 10.4457   1
   0   4   2 649.902 11.5734  -2
   0   4   2 649.902 11.5734   1
  -1   4   2 894.793 30.2008  -2
   1   4   2 894.793 30.2008   1
   1   4   2 300.681 6.82545   1
   1   4   2 374.350 7.82727   2
  -2   4   3 1352.64 31.8081  -2
   2   4   2 1352.64 31.8081   1
   3   4   2 909.156 37.2313   1
   3   4   2 1157.43 45.0603   2
  -3   4   3 992.195 27.6667  -2
   3   4   2 992.195 27.6667   1
   4   4   2 157.073 6.70156   2
  -4   4   4 905.589 23.5569  -2
   4   4   2 905.589 23.5569   1
   4   4   2 108.505 7.43413   1
  -5   4   4 664.855 17.6174  -2
   5   4   2 664.855 17.6174   1
   6   4   2 32.9588 2.18714   1
  -6   4   5 1039.01 50.0357  -2
   6   4   2 1039.01 50.0357   1
   6   4   2 47.4224 2.44352   2
  -7   4   5 212.601 6.12958  -2
   7   4   2 212.601 6.12958   1
  -8   4   5 375.683 15.6127  -2
   8   4   2 375.683 15.6127   1
   8   4   2 87.6369 6.13248   2
  -9   4   6 195.263 7.21956  -2
   9   4   2 195.263 7.21956   1
 -10   4   6 340.633 10.7879  -2
  10   4   2 340.633 10.7879   1
 -11   4   7 67.9741 5.44470  -2
  11   4   2 67.9741 5.44470   1
 -12   4   7 194.482 8.95613  -2
  12   4   2 194.482 8.95613   1
 -13   4   7 95.7420 19.7826  -2
  13   4   2 95.7420 19.7826   1
 -14   4   8 252.474 11.1932  -2
  14   4   2 252.474 11.1932   1
 -15   4   8 32.2776 9.62647  -2
  15   4   2 32.2776 9.62647   1
 -15   5   4 3.64618 9.01411  -2
 -15   5   2 3.64618 9.01411   1
 -14   5   4 12.0837 4.19202  -2
 -14   5   2 12.0837 4.19202   1
 -12   5   3 77.3490 4.64215  -2
 -12   5   2 77.3490 4.64215   1
 -11   5   3 8.96896 3.54865  -2
 -11   5   2 8.96896 3.54865   1
 -10   5   2 20.2312 3.28486  -2
 -10   5   2 20.2312 3.28486   1
  -9   5   2 229.176 8.92092  -2
  -9   5   2 229.176 8.92092   1
  -8   5   1 14.2211 3.45612  -2
  -8   5   2 14.2211 3.45612   1
  -7   5   1 466.533 13.5879  -2
  -7   5   2 466.533 13.5879   1
  -6   5   2 3.28388 1.14868   1
  -6   5   2 9.29921 1.73846   2
   6   5   0 24.3617 9.88421  -2
  -6   5   2 24.3617 9.88421   1
  -6   5   1 32.1416 4.41716  -2
  -6   5   2 32.1416 4.41716   1
   5   5   0 588.011 14.3917  -2
  -5   5   2 588.011 14.3917   1
  -4   5   2 33.4472 3.03962   2
   4   5   0 187.945 6.84988  -2
  -4   5   2 187.945 6.84988   1
  -4   5   2 21.2969 2.72436   1
  -3   5   2 333.891 15.4179   2
  -3   5   2 260.065 10.8240   1
   3   5   1 338.316 10.1245  -2
  -3   5   2 338.316 10.1245   1
   2   5   1 129.451 3.56491  -2
  -2   5   2 129.451 3.56491   1
  -1   5   2 3.60460 0.84148   2
  -1   5   2 2.44497 1.07662   1
   1   5   2 451.207 16.0216  -2
  -1   5   2 451.207 16.0216   1
   0   5   2 1903.09 38.5667  -2
   0   5   2 1903.09 38.5667   1
  -1   5   2 361.315 16.2990  -2
   1   5   2 361.315 16.2990   1
   1   5   2 470.147 13.4376   2
   1   5   2 367.796 9.27774   1
  -2   5   3 139.975 4.13075  -2
   2   5   2 139.975 4.13075   1
  -3   5   3 50.3356 2.32887  -2
   3   5   2 50.3356 2.32887   1
   3   5   2 34.6012 3.68262   1
   3   5   2 53.1194 3.61426   2
  -4   5   4 1581.42 36.3994  -2
   4   5   2 1581.42 36.3994   1
   4   5   2 825.514 48.5105   2
  -5   5   4 211.544 6.44695  -2
   5   5   2 211.544 6.44695   1
  -6   5   5 227.880 10.8157  -2
   6   5   2 227.880 10.8157   1
   6   5   2 46.0659 2.87056   2
   6   5   2 41.2426 3.49175   1
  -7   5   5 11.4333 2.31997  -2
   7   5   2 11.4333 2.31997   1
  -8   5   5 39.0287 4.18943  -2
   8   5   2 39.0287 4.18943   1
  -9   5   6 64.0131 4.30553  -2
   9   5   2 64.0131 4.30553   1
   9   5   2 46.9854 4.50252   2
 -10   5   6 306.716 10.8959  -2
  10   5   2 306.716 10.8959   1
 -11   5   7 113.413 8.26411  -2
  11   5   2 113.413 8.26411   1
 -12   5   7 121.442 5.59258  -2
  12   5   2 121.442 5.59258   1
 -13   5   7 58.1241 12.2848  -2
  13   5   2 58.1241 12.2848   1
 -14   5   8 58.9234 4.56491  -2
  14   5   2 58.9234 4.56491   1
 -15   5   8 66.1069 14.1913  -2
  15   5   2 66.1069 14.1913   1
 -15   6   4 -5.0069 9.11683  -2
 -15   6   2 -5.0069 9.11683   1
 -14   6   4 249.137 14.0449  -2
 -14   6   2 249.137 14.0449   1
 -12   6   3 41.2953 4.09605  -2
 -12   6   2 41.2953 4.09605   1
 -11   6   3 31.9065 4.31266  -2
 -11   6   2 31.9065 4.31266   1
 -10   6   2 430.412 15.2701  -2
 -10   6   2 430.412 15.2701   1
  -9   6   2 65.2108 4.66904  -2
  -9   6   2 65.2108 4.66904   1
  -8   6   1 84.5718 5.00554  -2
  -8   6   2 84.5718 5.00554   1
  -8   6   2 69.3203 6.24789   1
  -7   6   1 45.6576 2.55781  -2
  -7   6   2 45.6576 2.55781   1
  -6   6   2 95.9632 6.04460   2
  -6   6   1 127.248 14.3972  -2
  -6   6   2 127.248 14.3972   1
  -6   6   2 88.1316 4.99101   1
   5   6   0 411.530 10.9150  -2
  -5   6   2 411.530 10.9150   1
   4   6   0 1990.66 53.0371  -2
  -4   6   2 1990.66 53.0371   1
   3   6   1 716.142 19.8456  -2
  -3   6   2 716.142 19.8456   1
  -3   6   2 10.7044 3.06974   2
   2   6   1 154.683 5.33305  -2
  -2   6   2 154.683 5.33305   1
   1   6   2 680.910 34.1704  -2
  -1   6   2 680.910 34.1704   1
  -1   6   2 76.4063 3.64877   1
  -1   6   2 94.3519 3.71101   2
   0   6   2 4257.71 94.4800  -2
   0   6   2 4257.71 94.4800   1
   1   6   2 631.335 20.9406   2
   1   6   2 487.116 14.5372   1
  -1   6   2 591.790 28.8633  -2
   1   6   2 591.790 28.8633   1
  -2   6   3 403.359 9.55881  -2
   2   6   2 403.359 9.55881   1
  -3   6   3 508.830 13.3932  -2
   3   6   2 508.830 13.3932   1
  -4   6   4 1580.87 37.0615  -2
   4   6   2 1580.87 37.0615   1
  -5   6   4 766.483 19.1573  -2
   5   6   2 766.483 19.1573   1
   6   6   2 121.063 6.10411   1
  -6   6   5 92.1599 9.86356  -2
   6   6   2 92.1599 9.86356   1
   6   6   2 143.742 5.93835   2
  -7   6   5 197.590 6.13438  -2
   7   6   2 197.590 6.13438   1
  -8   6   5 193.312 8.07702  -2
   8   6   2 193.312 8.07702   1
  -9   6   6 295.840 9.97514  -2
   9   6   2 295.840 9.97514   1
 -10   6   6 75.4309 5.32554  -2
  10   6   2 75.4309 5.32554   1
 -11   6   7 5.87537 5.67148  -2
  11   6   2 5.87537 5.67148   1
 -12   6   7 13.9837 3.45531  -2
  12   6   2 13.9837 3.45531   1
 -13   6   7 31.7301 15.0319  -2
  13   6   2 31.7301 15.0319   1
 -14   6   8 19.4475 4.02159  -2
  14   6   2 19.4475 4.02159   1
 -14   7   4 13.4671 4.44777  -2
 -14   7   2 13.4671 4.44777   1
 -12   7   3 5.69136 2.96792  -2
 -12   7   2 5.69136 2.96792   1
 -11   7   3 39.5072 5.15174  -2
 -11   7   2 39.5072 5.15174   1
 -10   7   2 9.22723 3.32419  -2
 -10   7   2 9.22723 3.32419   1
  -9   7   2 281.038 10.4731  -2
  -9   7   2 281.038 10.4731   1
  -8   7   1 142.019 7.04823  -2
  -8   7   2 142.019 7.04823   1
  -7   7   1 19.8932 2.08271  -2
  -7   7   2 19.8932 2.08271   1
  -6   7   2 25.0824 2.75308   1
  -6   7   1 130.596 16.8816  -2
   6   7   0 130.596 16.8816  -2
  -6   7   2 130.596 16.8816   1
  -6   7   1 42.7777 15.0145  -2
  -6   7   2 42.7777 15.0145   1
  -6   7   2 34.5677 6.58876   2
   5   7   0 184.288 5.74565  -2
  -5   7   2 184.288 5.74565   1
   4   7   0 165.652 5.89800  -2
  -4   7   2 165.652 5.89800   1
   3   7   1 55.2833 3.17519  -2
  -3   7   2 55.2833 3.17519   1
   2   7   1 27.4652 2.07626  -2
  -2   7   2 27.4652 2.07626   1
   1   7   2 7.33042 3.25767  -2
  -1   7   2 7.33042 3.25767   1
  -1   7   2 5.50419 1.55830   2
  -1   7   2 5.20701 1.68565   1
   1   7   1 19.4138 8.62524  -2
  -1   7   2 19.4138 8.62524   1
   0   7   2 18.0018 1.43538  -2
   0   7   2 18.0018 1.43538   1
   1   7   2 6.27363 1.95681   2
  -1   7   2 9.75271 3.54298  -2
   1   7   2 9.75271 3.54298   1
  -1   7   3 116.178 13.8935  -2
  -1   7   2 116.178 13.8935  -2
   1   7   2 116.178 13.8935   1
   1   7   2 2.73333 1.38013   1
  -2   7   3 385.994 9.87188  -2
   2   7   2 385.994 9.87188   1
  -3   7   3 504.800 13.7777  -2
   3   7   2 504.800 13.7777   1
  -4   7   4 334.474 9.33661  -2
   4   7   2 334.474 9.33661   1
  -5   7   4 99.6408 3.86338  -2
   5   7   2 99.6408 3.86338   1
   6   7   2 298.028 19.7718   2
  -6   7   5 297.246 17.8838  -2
   6   7   2 297.246 17.8838   1
   6   7   2 230.755 20.9465   1
  -7   7   5 805.028 21.4853  -2
   7   7   2 805.028 21.4853   1
  -8   7   5 129.186 5.22184  -2
   8   7   2 129.186 5.22184   1
  -9   7   6 73.9133 5.47592  -2
   9   7   2 73.9133 5.47592   1
 -10   7   6 94.1008 5.02020  -2
  10   7   2 94.1008 5.02020   1
 -11   7   7 142.632 13.7948  -2
  11   7   2 142.632 13.7948   1
 -12   7   7 70.1798 4.44350  -2
  12   7   2 70.1798 4.44350   1
 -13   7   7 61.9319 11.4536  -2
  13   7   2 61.9319 11.4536   1
 -14   7   8 15.3329 5.92378  -2
  14   7   2 15.3329 5.92378   1
 -14   8   4 48.1739 7.80930  -2
 -14   8   2 48.1739 7.80930   1
 -13   8   3 1.67515 11.7423  -2
 -13   8   2 1.67515 11.7423   1
 -12   8   3 69.6705 4.65441  -2
 -12   8   2 69.6705 4.65441   1
 -11   8   3 69.5988 5.57917  -2
 -11   8   2 69.5988 5.57917   1
 -10   8   2 33.4376 4.04335  -2
 -10   8   2 33.4376 4.04335   1
  -9   8   2 126.342 5.21807  -2
  -9   8   2 126.342 5.21807   1
  -8   8   1 75.8189 4.73358  -2
  -8   8   2 75.8189 4.73358   1
  -7   8   1 307.938 9.71033  -2
  -7   8   2 307.938 9.71033   1
  -6   8   2 124.651 21.7836   2
  -6   8   1 207.648 16.5487  -2
  -6   8   2 207.648 16.5487   1
  -6   8   2 96.0467 10.6706   1
   5   8   0 254.324 9.27733  -2
  -5   8   2 254.324 9.27733   1
   4   8   0 124.736 5.00152  -2
  -4   8   2 124.736 5.00152   1
   3   8   1 130.524 5.81698  -2
  -3   8   2 130.524 5.81698   1
   2   8   1 333.220 10.5358  -2
  -2   8   2 333.220 10.5358   1
  -1   8   2 61.2724 4.19195   1
   1   8   2 69.9978 4.85359  -2
  -1   8   2 69.9978 4.85359   1
  -1   8   2 84.1049 4.23537   2
   1   8   1 57.4473 9.92617  -2
  -1   8   2 57.4473 9.92617   1
   0   8   2 480.723 11.8692  -2
   0   8   2 480.723 11.8692   1
   1   8   2 2.87321 1.54659   1
   1   8   2 6.14468 2.08353   2
  -1   8   2 84.5376 6.93653  -2
   1   8   2 84.5376 6.93653   1
  -2   8   3 82.6507 3.48228  -2
   2   8   2 82.6507 3.48228   1
  -3   8   3 124.633 5.19278  -2
   3   8   2 124.633 5.19278   1
  -4   8   4 114.218 4.70638  -2
   4   8   2 114.218 4.70638   1
  -5   8   4 85.4586 4.43470  -2
   5   8   2 85.4586 4.43470   1
  -6   8   5 19.3531 5.12654  -2
   6   8   2 19.3531 5.12654   1
   6   8   2 -3.8612 4.17116   1
  -7   8   5 329.481 10.9287  -2
   7   8   2 329.481 10.9287   1
  -8   8   5 148.586 7.27852  -2
   8   8   2 148.586 7.27852   1
   8   8   2 11.7366 14.8890   1
  -9   8   6 58.3537 4.30088  -2
   9   8   2 58.3537 4.30088   1
 -10   8   6 18.2694 3.86874  -2
  10   8   2 18.2694 3.86874   1
 -11   8   7 98.3076 6.47394  -2
  11   8   2 98.3076 6.47394   1
 -12   8   7 111.042 5.75604  -2
  12   8   2 111.042 5.75604   1
 -13   8   7 20.6075 10.9254  -2
  13   8   2 20.6075 10.9254   1
 -14   8   8 4.42476 6.68487  -2
  14   8   2 4.42476 6.68487   1
 -13   9   3 -3.0930 15.4304  -2
 -13   9   2 -3.0930 15.4304   1
 -12   9   3 97.5827 5.35828  -2
 -12   9   2 97.5827 5.35828   1
 -11   9   3 143.705 9.85034  -2
 -11   9   2 143.705 9.85034   1
 -10   9   2 16.7541 4.26755  -2
 -10   9   2 16.7541 4.26755   1
  -9   9   2 82.3310 4.60252  -2
  -9   9   2 82.3310 4.60252   1
  -8   9   1 109.646 6.08222  -2
  -8   9   2 109.646 6.08222   1
  -7   9   1 267.870 8.65216  -2
  -7   9   2 267.870 8.65216   1
  -6   9   1 545.616 24.0288  -2
  -6   9   2 545.616 24.0288   1
   5   9   0 395.132 12.2500  -2
  -5   9   2 395.132 12.2500   1
   4   9   0 24.9286 3.16898  -2
  -4   9   2 24.9286 3.16898   1
   3   9   1 980.823 46.7854  -2
  -3   9   2 980.823 46.7854   1
   2   9   1 1237.04 36.9860  -2
  -2   9   2 1237.04 36.9860   1
   1   9   1 291.746 27.4042  -2
  -1   9   2 291.746 27.4042   1
   1   9   1 874.114 79.7918  -2
   1   9   2 874.114 79.7918  -2
  -1   9   2 874.114 79.7918   1
  -1   9   2 217.097 13.1418   1
  -1   9   2 281.242 16.7457   2
   1   9   2 810.163 30.7363  -2
  -1   9   2 810.163 30.7363   1
   0   9   2 209.803 6.10295  -2
   0   9   2 209.803 6.10295   1
  -1   9   2 766.112 28.4208  -2
   1   9   2 766.112 28.4208   1
   1   9   2 450.825 25.2328   1
   1   9   2 631.997 32.1591   2
  -2   9   3 566.684 15.3918  -2
   2   9   2 566.684 15.3918   1
  -3   9   3 135.391 6.36545  -2
   3   9   2 135.391 6.36545   1
  -4   9   4 270.845 11.5892  -2
   4   9   2 270.845 11.5892   1
  -5   9   4 114.786 5.18115  -2
   5   9   2 114.786 5.18115   1
   6   9   2 1.38167 9.26003   1
  -6   9   5 58.7662 7.67067  -2
   6   9   2 58.7662 7.67067   1
  -7   9   5 246.281 7.89368  -2
   7   9   2 246.281 7.89368   1
  -8   9   5 269.359 12.4869  -2
   8   9   2 269.359 12.4869   1
  -9   9   6 22.3126 3.45514  -2
   9   9   2 22.3126 3.45514   1
 -10   9   6 17.6558 3.80381  -2
  10   9   2 17.6558 3.80381   1
 -11   9   7 136.031 8.41115  -2
  11   9   2 136.031 8.41115   1
 -12   9   7 56.4182 4.24327  -2
  12   9   2 56.4182 4.24327   1
 -13   9   7 9.19830 10.3922  -2
  13   9   2 9.19830 10.3922   1
 -12  10   3 7.85859 3.40497  -2
 -12  10   2 7.85859 3.40497   1
 -11  10   3 22.1637 5.30910  -2
 -11  10   2 22.1637 5.30910   1
 -10  10   2 4.06401 5.03025  -2
 -10  10   2 4.06401 5.03025   1
  -9  10   2 5.55189 4.06042  -2
  -9  10   2 5.55189 4.06042   1
  -8  10   1 42.9633 6.77560  -2
  -8  10   2 42.9633 6.77560   1
  -7  10   1 55.9742 3.62333  -2
  -7  10   2 55.9742 3.62333   1
  -6  10   1 121.714 10.8349  -2
  -6  10   2 121.714 10.8349   1
   5  10   0 238.675 8.56974  -2
  -5  10   2 238.675 8.56974   1
   4  10   0 119.229 6.10989  -2
  -4  10   2 119.229 6.10989   1
   3  10   1 15.9424 2.83339  -2
  -3  10   2 15.9424 2.83339   1
   2  10   1 65.8039 4.08593  -2
  -2  10   2 65.8039 4.08593   1
   1  10   2 218.626 14.0672  -2
  -1  10   2 218.626 14.0672   1
  -1  10   2 280.308 42.6731   2
   1  10   1 440.009 43.0441  -2
   1  10   2 440.009 43.0441  -2
  -1  10   2 440.009 43.0441   1
   0  10   2 42.9687 2.69060  -2
   0  10   2 42.9687 2.69060   1
  -1  10   2 261.380 12.9766  -2
   1  10   2 261.380 12.9766   1
   1  10   2 13.5937 6.45293   1
  -2  10   3 25.2523 3.22878  -2
   2  10   2 25.2523 3.22878   1
  -3  10   3 72.6670 5.68243  -2
   3  10   2 72.6670 5.68243   1
  -4  10   4 154.305 6.72483  -2
   4  10   2 154.305 6.72483   1
  -5  10   4 385.455 11.7066  -2
   5  10   2 385.455 11.7066   1
  -7  10   5 13.6433 2.43244  -2
   7  10   2 13.6433 2.43244   1
  -8  10   5 10.4199 6.07054  -2
   8  10   2 10.4199 6.07054   1
  -9  10   6 172.274 7.91622  -2
   9  10   2 172.274 7.91622   1
 -10  10   6 170.417 8.12016  -2
  10  10   2 170.417 8.12016   1
 -11  10   7 32.9175 6.81157  -2
  11  10   2 32.9175 6.81157   1
 -12  10   7 7.63824 3.47840  -2
  12  10   2 7.63824 3.47840   1
 -12  11   3 14.3971 3.92715  -2
 -12  11   2 14.3971 3.92715   1
 -11  11   3 11.6579 5.88912  -2
 -11  11   2 11.6579 5.88912   1
 -10  11   2 2.46507 4.21536  -2
 -10  11   2 2.46507 4.21536   1
  -9  11   2 323.001 14.4391  -2
  -9  11   2 323.001 14.4391   1
  -8  11   1 -3.0446 7.48452  -2
  -8  11   2 -3.0446 7.48452   1
  -7  11   1 46.4209 3.14035  -2
  -7  11   2 46.4209 3.14035   1
  -6  11   1 2.58659 7.65721  -2
  -6  11   2 2.58659 7.65721   1
   5  11   0 445.605 14.2887  -2
  -5  11   2 445.605 14.2887   1
   4  11   0 32.9288 4.24500  -2
  -4  11   2 32.9288 4.24500   1
   3  11   1 167.710 8.23381  -2
  -3  11   2 167.710 8.23381   1
   2  11   1 138.373 6.04069  -2
  -2  11   2 138.373 6.04069   1
   1  11   2 15.2548 4.37347  -2
  -1  11   2 15.2548 4.37347   1
   1  11   1 95.7050 15.2718  -2
  -1  11   2 95.7050 15.2718   1
  -1  11   2 23.8353 13.9887   1
   0  11   2 189.613 5.83559  -2
   0  11   2 189.613 5.83559   1
  -1  11   2 4.68933 5.35030  -2
   1  11   2 4.68933 5.35030   1
  -1  11   3 341.230 33.0564  -2
   1  11   2 341.230 33.0564   1
   1  11   2 4.40813 10.7013   2
  -2  11   3 142.336 5.80955  -2
   2  11   2 142.336 5.80955   1
  -3  11   3 104.308 5.23508  -2
   3  11   2 104.308 5.23508   1
  -4  11   4 94.2258 6.16626  -2
   4  11   2 94.2258 6.16626   1
  -5  11   4 10.1016 3.52948  -2
   5  11   2 10.1016 3.52948   1
  -6  11   5 -44.143 46.0915  -2
   6  11   2 -44.143 46.0915   1
  -7  11   5 32.2484 2.90081  -2
   7  11   2 32.2484 2.90081   1
  -8  11   5 32.0552 6.78439  -2
   8  11   2 32.0552 6.78439   1
  -9  11   6 13.4071 4.97163  -2
   9  11   2 13.4071 4.97163   1
 -10  11   6 57.1781 5.62578  -2
  10  11   2 57.1781 5.62578   1
 -11  11   7 41.8794 6.19879  -2
  11  11   2 41.8794 6.19879   1
 -12  11   7 9.60039 3.96894  -2
  12  11   2 9.60039 3.96894   1
 -12  12   3 85.6170 10.2473  -2
 -12  12   2 85.6170 10.2473   1
 -11  12   3 107.511 12.7033  -2
 -11  12   2 107.511 12.7033   1
 -10  12   2 151.686 8.06868  -2
 -10  12   2 151.686 8.06868   1
  -9  12   2 11.3718 4.69961  -2
  -9  12   2 11.3718 4.69961   1
  -8  12   1 209.885 13.8537  -2
  -8  12   2 209.885 13.8537   1
  -7  12   1 248.869 8.60324  -2
  -7  12   2 248.869 8.60324   1
   5  12   0 66.5867 4.02376  -2
  -5  12   2 66.5867 4.02376   1
   4  12   0 300.651 10.7062  -2
  -4  12   2 300.651 10.7062   1
   3  12   1 261.676 9.66077  -2
  -3  12   2 261.676 9.66077   1
   2  12   1 82.7847 4.67663  -2
  -2  12   2 82.7847 4.67663   1
   1  12   2 126.861 10.2152  -2
  -1  12   2 126.861 10.2152   1
   0  12   2 263.038 7.87651  -2
   0  12   2 263.038 7.87651   1
  -1  12   2 101.749 7.61859  -2
   1  12   2 101.749 7.61859   1
   1  12   2 92.9250 13.2227   1
  -2  12   3 60.4334 3.84064  -2
   2  12   2 60.4334 3.84064   1
  -3  12   3 33.3160 3.41943  -2
   3  12   2 33.3160 3.41943   1
  -4  12   4 328.986 11.8772  -2
   4  12   2 328.986 11.8772   1
  -5  12   4 103.789 5.60695  -2
   5  12   2 103.789 5.60695   1
   6  12   2 46.4774 5.49142   1
  -7  12   5 13.6611 3.45236  -2
   7  12   2 13.6611 3.45236   1
  -8  12   5 99.1686 10.2001  -2
   8  12   2 99.1686 10.2001   1
  -9  12   6 46.6221 4.73270  -2
   9  12   2 46.6221 4.73270   1
 -10  12   6 78.9523 5.41873  -2
  10  12   2 78.9523 5.41873   1
 -11  12   7 2.07513 6.96360  -2
  11  12   2 2.07513 6.96360   1
 -11  13   3 -3.9913 11.8650  -2
 -11  13   2 -3.9913 11.8650   1
 -10  13   2 5.30227 4.14674  -2
 -10  13   2 5.30227 4.14674   1
  -9  13   2 0.48721 3.85134  -2
  -9  13   2 0.48721 3.85134   1
  -8  13   1 34.1273 8.45050  -2
  -8  13   2 34.1273 8.45050   1
  -7  13   1 87.3937 4.81113  -2
  -7  13   2 87.3937 4.81113   1
   5  13   0 11.5010 3.04347  -2
  -5  13   2 11.5010 3.04347   1
   4  13   0 34.7963 4.66860  -2
  -4  13   2 34.7963 4.66860   1
   3  13   1 218.177 7.84113  -2
  -3  13   2 218.177 7.84113   1
   2  13   1 190.364 8.11272  -2
  -2  13   2 190.364 8.11272   1
  -1  13   2 105.461 26.9807   1
   1  13   2 68.4788 9.96246  -2
  -1  13   2 68.4788 9.96246   1
   0  13   2 19.0230 2.19345  -2
   0  13   2 19.0230 2.19345   1
  -1  13   2 117.510 8.07275  -2
   1  13   2 117.510 8.07275   1
   1  13   2 -10.738 13.2291   2
  -2  13   3 361.762 11.2807  -2
   2  13   2 361.762 11.2807   1
  -3  13   3 496.577 16.1191  -2
   3  13   2 496.577 16.1191   1
  -4  13   4 46.5557 4.75362  -2
   4  13   2 46.5557 4.75362   1
  -5  13   4 25.4397 3.48228  -2
   5  13   2 25.4397 3.48228   1
  -7  13   5 203.800 7.25283  -2
   7  13   2 203.800 7.25283   1
  -8  13   5 2.09377 5.98300  -2
   8  13   2 2.09377 5.98300   1
  -9  13   6 1.59804 4.42893  -2
   9  13   2 1.59804 4.42893   1
 -10  13   6 13.4838 4.21730  -2
  10  13   2 13.4838 4.21730   1
 -10  14   2 5.72222 5.71317  -2
 -10  14   2 5.72222 5.71317   1
  -9  14   2 0.15711 3.74518  -2
  -9  14   2 0.15711 3.74518   1
  -8  14   1 7.17803 5.70534  -2
  -8  14   2 7.17803 5.70534   1
  -7  14   1 93.7786 5.30631  -2
  -7  14   2 93.7786 5.30631   1
   5  14   0 53.4577 3.57512  -2
  -5  14   2 53.4577 3.57512   1
   4  14   0 32.1797 4.64317  -2
  -4  14   2 32.1797 4.64317   1
   3  14   1 38.7389 4.69994  -2
  -3  14   2 38.7389 4.69994   1
   2  14   1 14.6746 3.08000  -2
  -2  14   2 14.6746 3.08000   1
   1  14   1 13.4580 12.6699  -2
  -1  14   2 13.4580 12.6699   1
   1  14   2 38.4486 12.5000  -2
  -1  14   2 38.4486 12.5000   1
   0  14   2 25.2595 2.58288  -2
   0  14   2 25.2595 2.58288   1
  -1  14   2 26.0859 8.23055  -2
   1  14   2 26.0859 8.23055   1
  -2  14   3 65.2940 4.26411  -2
   2  14   2 65.2940 4.26411   1
  -3  14   3 20.6983 4.30205  -2
   3  14   2 20.6983 4.30205   1
  -4  14   4 -3.6829 4.68243  -2
   4  14   2 -3.6829 4.68243   1
  -5  14   4 25.0431 4.19608  -2
   5  14   2 25.0431 4.19608   1
  -6  14   5 56.8329 11.0329  -2
   6  14   2 56.8329 11.0329   1
  -7  14   5 18.1225 2.94517  -2
   7  14   2 18.1225 2.94517   1
  -8  14   5 14.6946 7.50897  -2
   8  14   2 14.6946 7.50897   1
  -9  14   6 7.75102 4.36962  -2
   9  14   2 7.75102 4.36962   1
  -8  15   1 39.5940 6.59707  -2
  -8  15   2 39.5940 6.59707   1
  -7  15   1 37.6079 3.48957  -2
  -7  15   2 37.6079 3.48957   1
   5  15   0 216.750 8.89914  -2
  -5  15   2 216.750 8.89914   1
   4  15   0 46.5069 7.99024  -2
  -4  15   2 46.5069 7.99024   1
   3  15   1 174.254 8.47020  -2
  -3  15   2 174.254 8.47020   1
   2  15   1 93.6188 6.18967  -2
  -2  15   2 93.6188 6.18967   1
  -1  15   2 65.8984 12.1997   1
   1  15   2 100.555 16.7427  -2
  -1  15   2 100.555 16.7427   1
   0  15   2 22.2492 2.55904  -2
   0  15   2 22.2492 2.55904   1
  -1  15   2 128.198 17.7086  -2
   1  15   2 128.198 17.7086   1
  -2  15   3 75.7382 5.58167  -2
   2  15   2 75.7382 5.58167   1
  -3  15   3 47.3525 6.74754  -2
   3  15   2 47.3525 6.74754   1
  -4  15   4 29.7605 9.63689  -2
   4  15   2 29.7605 9.63689   1
  -5  15   4 22.4439 3.30549  -2
   5  15   2 22.4439 3.30549   1
  -6  15   5 53.7873 14.9820  -2
   6  15   2 53.7873 14.9820   1
  -7  15   5 121.418 5.01056  -2
   7  15   2 121.418 5.01056   1
  -8  15   5 19.6268 5.99487  -2
   8  15   2 19.6268 5.99487   1
  -7  16   1 7.65702 3.41685  -2
  -7  16   2 7.65702 3.41685   1
  -6  16   1 20.3536 12.7980  -2
  -6  16   2 20.3536 12.7980   1
   5  16   0 24.5017 3.90237  -2
  -5  16   2 24.5017 3.90237   1
   4  16   0 31.9570 7.31712  -2
  -4  16   2 31.9570 7.31712   1
   3  16   1 -0.2592 4.96857  -2
  -3  16   2 -0.2592 4.96857   1
   2  16   1 17.9899 4.21233  -2
  -2  16   2 17.9899 4.21233   1
   1  16   2 -1.2673 7.76542  -2
  -1  16   2 -1.2673 7.76542   1
   0  16   2 103.397 4.59492  -2
   0  16   2 103.397 4.59492   1
  -1  16   2 -1.7733 11.2973  -2
   1  16   2 -1.7733 11.2973   1
  -2  16   3 47.1971 4.46708  -2
   2  16   2 47.1971 4.46708   1
  -3  16   3 33.8007 5.52049  -2
   3  16   2 33.8007 5.52049   1
  -4  16   4 94.7952 9.62427  -2
   4  16   2 94.7952 9.62427   1
  -5  16   4 126.587 6.67056  -2
   5  16   2 126.587 6.67056   1
  -6  16   4 48.5171 15.9759  -2
   6  16   2 48.5171 15.9759   1
  -7  16   5 10.1535 4.79262  -2
   7  16   2 10.1535 4.79262   1
   5  17   0 29.3748 4.65071  -2
  -5  17   2 29.3748 4.65071   1
   4  17   0 4.84313 7.50873  -2
  -4  17   2 4.84313 7.50873   1
   3  17   1 -2.2500 5.81916  -2
  -3  17   2 -2.2500 5.81916   1
   2  17   1 5.26981 3.10427  -2
  -2  17   2 5.26981 3.10427   1
   1  17   2 41.7113 13.7967  -2
  -1  17   2 41.7113 13.7967   1
   0  17   2 12.5358 2.51718  -2
   0  17   2 12.5358 2.51718   1
  -1  17   2 63.7735 10.9695  -2
   1  17   2 63.7735 10.9695   1
  -2  17   3 13.6566 3.83967  -2
   2  17   2 13.6566 3.83967   1
  -3  17   3 2.52292 4.66468  -2
   3  17   2 2.52292 4.66468   1
  -4  17   4 14.1632 6.94671  -2
   4  17   2 14.1632 6.94671   1
  -5  17   4 21.1149 3.48579  -2
   5  17   2 21.1149 3.48579   1
   0  18   2 64.1265 5.96010  -2
   0  18   2 64.1265 5.96010   1
  -1  18   2 9.52940 13.9014  -2
   1  18   2 9.52940 13.9014   1
 -15   0   3 149.725 15.4783  -2
 -15   0   3 149.725 15.4783   1
 -14   0   3 -1.4983 5.57980  -2
 -14   0   3 -1.4983 5.57980   1
 -12   0   2 5.63994 4.04789  -2
 -12   0   3 5.63994 4.04789   1
 -11   0   2 32.3044 5.50640  -2
 -11   0   3 32.3044 5.50640   1
 -10   0   1 11.7816 4.36367  -2
 -10   0   3 11.7816 4.36367   1
  -9   0   1 2393.71 104.027  -2
  -9   0   3 2393.71 104.027   1
  -8   0   3 -0.9052 1.56583   1
   8   0   0 14.6068 3.63363  -2
  -8   0   3 14.6068 3.63363   1
   7   0   0 8.58462 1.56612  -2
  -7   0   3 8.58462 1.56612   1
  -6   0   3 -1.8950 1.17667   1
  -6   0   3 3.49056 0.91830   2
   6   0   0 133.765 12.3755  -2
  -6   0   3 133.765 12.3755   1
   5   0   1 2546.94 75.4799  -2
  -5   0   3 2546.94 75.4799   1
  -4   0   3 0.27463 0.98254   1
  -4   0   3 3.13858 0.85613   2
   4   0   1 1.71744 2.54600  -2
  -4   0   3 1.71744 2.54600   1
  -3   0   3 21.1968 1.47157   1
   3   0   2 18.1098 2.67948  -2
  -3   0   3 18.1098 2.67948   1
  -3   0   3 23.4275 1.89555   2
  -2   0   3 2.31425 1.49356   2
   2   0   2 106.429 3.60858  -2
  -2   0   3 106.429 3.60858   1
  -2   0   3 0.36045 0.79891   1
  -1   0   3 260.079 7.05843   2
   1   0   3 538.433 43.8209  -2
  -1   0   3 538.433 43.8209   1
  -1   0   3 221.736 6.09870   1
   0   0   3 4.37952 0.66177  -2
   0   0   3 4.37952 0.66177   1
   1   0   3 304.368 8.22896   1
   1   0   3 355.407 9.44382   2
  -2   0   4 82.0207 2.77290  -2
   2   0   3 82.0207 2.77290   1
   3   0   3 398.736 13.8995   2
   3   0   3 368.349 19.1479   1
  -3   0   4 327.368 12.6024  -2
   3   0   3 327.368 12.6024   1
  -4   0   5 1.94545 2.26460  -2
   4   0   3 1.94545 2.26460   1
   4   0   3 3.24334 1.23845   2
   4   0   3 -0.2581 2.01701   1
  -5   0   5 453.674 15.0338  -2
   5   0   3 453.674 15.0338   1
   6   0   3 4.07173 1.36874   1
   6   0   3 -0.4757 1.42450   2
  -6   0   6 234.737 19.8382  -2
   6   0   3 234.737 19.8382   1
  -7   0   6 831.876 27.1084  -2
   7   0   3 831.876 27.1084   1
  -8   0   6 225.281 11.9795  -2
   8   0   3 225.281 11.9795   1
   8   0   3 0.86989 1.22069   1
   8   0   3 1.37585 2.13240   2
  -9   0   7 132.082 9.38747  -2
   9   0   3 132.082 9.38747   1
 -10   0   7 -0.1149 5.57189  -2
  10   0   3 -0.1149 5.57189   1
 -11   0   8 79.0926 8.84426  -2
  11   0   3 79.0926 8.84426   1
  11   0   3 107.936 6.57512   2
 -12   0   8 108.725 7.99391  -2
  12   0   3 108.725 7.99391   1
 -14   0   9 3.15155 4.05041  -2
  14   0   3 3.15155 4.05041   1
 -15   0   9 40.2214 14.7468  -2
  15   0   3 40.2214 14.7468   1
 -16   1   4 -12.194 10.4595  -2
 -16   1   3 -12.194 10.4595   1
 -16   1   3 12.1624 17.5356  -2
 -16   1   3 12.1624 17.5356   1
 -15   1   3 -2.4497 6.02968  -2
 -15   1   3 -2.4497 6.02968   1
 -14   1   3 0.04455 4.13327  -2
 -14   1   3 0.04455 4.13327   1
 -12   1   2 59.9403 3.68579  -2
 -12   1   3 59.9403 3.68579   1
 -11   1   2 50.0783 2.54058  -2
 -11   1   3 50.0783 2.54058   1
 -10   1   1 19.2698 2.51648  -2
 -10   1   3 19.2698 2.51648   1
  -9   1   1 306.438 18.1262  -2
  -9   1   3 306.438 18.1262   1
  -8   1   3 2.61487 0.77751   1
   8   1   0 4.68180 2.56851  -2
  -8   1   3 4.68180 2.56851   1
   7   1   0 149.964 4.01653  -2
  -7   1   3 149.964 4.01653   1
   6   1   0 75.6594 4.76602  -2
  -6   1   3 75.6594 4.76602   1
  -6   1   3 83.5673 3.44590   2
  -6   1   3 77.7124 2.61989   1
   5   1   1 1295.60 27.4790  -2
  -5   1   3 1295.60 27.4790   1
  -4   1   3 139.131 4.07999   2
  -4   1   3 103.058 3.32498   1
   4   1   1 120.361 4.14677  -2
  -4   1   3 120.361 4.14677   1
   3   1   2 477.852 16.2755  -2
  -3   1   3 477.852 16.2755   1
  -3   1   3 12.2371 0.77999   1
  -3   1   3 10.9980 1.12732   2
   2   1   2 1407.91 28.7458  -2
  -2   1   3 1407.91 28.7458   1
  -2   1   3 803.592 35.7178   1
  -2   1   3 1039.29 62.4347   2
  -1   1   3 33.0732 0.97837   2
  -1   1   3 26.6174 0.79537   1
   1   1   3 333.578 28.9708  -2
  -1   1   3 333.578 28.9708   1
   0   1   3 7.57997 0.46072  -2
   0   1   3 7.57997 0.46072   1
   1   1   3 339.583 6.16667   2
   1   1   3 293.570 5.69792   1
  -1   1   3 305.655 15.2191  -2
   1   1   3 305.655 15.2191   1
  -2   1   4 1727.77 30.4268  -2
   2   1   3 1727.77 30.4268   1
  -3   1   4 434.323 12.3297  -2
   3   1   3 434.323 12.3297   1
   3   1   3 14.1439 1.16862   1
   3   1   3 12.2975 1.28367   2
   4   1   3 161.520 7.98679   1
  -4   1   5 278.455 9.42951  -2
   4   1   3 278.455 9.42951   1
   4   1   3 197.344 7.07814   2
  -5   1   5 1023.40 22.1227  -2
   5   1   3 1023.40 22.1227   1
   6   1   3 2.49903 1.38401   2
   6   1   3 2.63597 0.87983   1
  -6   1   6 5.31592 2.09419  -2
   6   1   3 5.31592 2.09419   1
  -6   1   5 245.136 25.7473  -2
   6   1   3 245.136 25.7473   1
  -7   1   6 735.502 18.4333  -2
   7   1   3 735.502 18.4333   1
  -8   1   6 38.8196 3.76264  -2
   8   1   3 38.8196 3.76264   1
   8   1   3 58.5419 4.29027   2
   8   1   3 38.5746 23.4066   1
  -9   1   7 317.065 9.98254  -2
   9   1   3 317.065 9.98254   1
 -10   1   7 46.3916 3.02769  -2
  10   1   3 46.3916 3.02769   1
 -11   1   8 295.017 12.7099  -2
  11   1   3 295.017 12.7099   1
 -12   1   8 202.789 8.08506  -2
  12   1   3 202.789 8.08506   1
 -14   1   9 15.8700 3.63269  -2
  14   1   3 15.8700 3.63269   1
 -15   1   9 3.79464 8.83625  -2
  15   1   3 3.79464 8.83625   1
 -15   2   3 6.14617 5.96256  -2
 -15   2   3 6.14617 5.96256   1
 -14   2   3 19.4257 3.80805  -2
 -14   2   3 19.4257 3.80805   1
 -12   2   2 1.89609 2.12623  -2
 -12   2   3 1.89609 2.12623   1
 -11   2   2 46.4272 5.30419  -2
 -11   2   3 46.4272 5.30419   1
 -10   2   1 16.4635 3.40311  -2
 -10   2   3 16.4635 3.40311   1
  -9   2   1 85.5919 6.50676  -2
  -9   2   3 85.5919 6.50676   1
   8   2   0 189.625 8.02037  -2
  -8   2   3 189.625 8.02037   1
  -8   2   3 168.900 10.5494   1
   7   2   0 728.616 16.1473  -2
  -7   2   3 728.616 16.1473   1
   6   2   0 395.053 16.9002  -2
  -6   2   3 395.053 16.9002   1
  -6   2   3 379.197 9.90581   1
  -6   2   3 462.555 13.8180   2
   5   2   1 185.202 4.64793  -2
  -5   2   3 185.202 4.64793   1
  -4   2   3 33.7393 1.84449   2
  -4   2   3 29.6284 1.71034   1
   4   2   1 43.3852 2.32845  -2
  -4   2   3 43.3852 2.32845   1
  -3   2   3 211.245 5.74137   2
   3   2   2 1029.98 26.8519  -2
  -3   2   3 1029.98 26.8519   1
  -3   2   3 186.747 5.32592   1
   2   2   2 2314.42 42.7313  -2
  -2   2   3 2314.42 42.7313   1
  -2   2   3 2218.08 126.069   1
  -2   2   3 2694.64 306.299   2
  -1   2   3 11.5315 0.74937   2
  -1   2   3 9.44027 0.57326   1
   1   2   3 473.264 28.7316  -2
  -1   2   3 473.264 28.7316   1
   0   2   3 367.497 6.70492  -2
   0   2   3 367.497 6.70492   1
   1   2   3 476.942 8.93126   2
  -1   2   3 403.901 19.7121  -2
   1   2   3 403.901 19.7121   1
   1   2   3 385.769 8.03547   1
  -2   2   4 646.513 13.0572  -2
   2   2   3 646.513 13.0572   1
   3   2   3 59.9974 2.50300   2
   3   2   3 61.4385 3.03445   1
  -3   2   4 721.486 15.8261  -2
   3   2   3 721.486 15.8261   1
   4   2   3 2.64470 1.97077   1
  -4   2   5 17.7736 1.92873  -2
   4   2   3 17.7736 1.92873   1
   4   2   3 8.70618 1.73424   2
  -5   2   5 1032.40 23.9574  -2
   5   2   3 1032.40 23.9574   1
   6   2   3 50.8141 3.10417   2
   6   2   3 38.1633 2.95260   1
  -6   2   6 116.462 8.08133  -2
   6   2   3 116.462 8.08133   1
  -6   2   5 280.399 29.0343  -2
   6   2   3 280.399 29.0343   1
  -7   2   6 538.096 14.2188  -2
   7   2   3 538.096 14.2188   1
  -8   2   6 105.947 5.32557  -2
   8   2   3 105.947 5.32557   1
  -9   2   7 455.132 14.6370  -2
   9   2   3 455.132 14.6370   1
 -10   2   7 206.880 8.55119  -2
  10   2   3 206.880 8.55119   1
 -11   2   8 135.680 6.72905  -2
  11   2   3 135.680 6.72905   1
 -12   2   8 26.2304 3.63484  -2
  12   2   3 26.2304 3.63484   1
 -14   2   9 103.502 5.71647  -2
  14   2   3 103.502 5.71647   1
 -15   2   9 10.7141 6.72187  -2
  15   2   3 10.7141 6.72187   1
 -15   3   3 10.6427 6.33414  -2
 -15   3   3 10.6427 6.33414   1
 -14   3   3 1.43382 3.30291  -2
 -14   3   3 1.43382 3.30291   1
 -12   3   2 497.812 15.9290  -2
 -12   3   3 497.812 15.9290   1
 -11   3   2 632.544 21.8824  -2
 -11   3   3 632.544 21.8824   1
 -10   3   1 201.693 7.53300  -2
 -10   3   3 201.693 7.53300   1
  -9   3   1 132.838 7.15064  -2
  -9   3   3 132.838 7.15064   1
  -8   3   3 319.933 24.4101   1
   8   3   0 344.086 15.8667  -2
  -8   3   3 344.086 15.8667   1
  -8   3   3 391.323 75.8946   2
   7   3   0 1786.47 39.5551  -2
  -7   3   3 1786.47 39.5551   1
  -6   3   3 424.526 16.6621   2
  -6   3   3 368.956 12.3459   1
   6   3   0 629.069 26.1031  -2
  -6   3   3 629.069 26.1031   1
   5   3   1 443.320 11.5147  -2
  -5   3   3 443.320 11.5147   1
   4   3   1 323.981 10.6457  -2
  -4   3   3 323.981 10.6457   1
  -4   3   3 10.7901 1.12188   1
  -4   3   3 12.0656 1.44187   2
  -3   3   3 15.7987 1.38777   2
  -3   3   3 32.8660 2.26979   1
   3   3   2 1563.12 45.3931  -2
  -3   3   3 1563.12 45.3931   1
   2   3   2 1199.54 24.2059  -2
  -2   3   3 1199.54 24.2059   1
  -1   3   3 32.3564 1.08462   2
  -1   3   3 27.7190 1.12660   1
   1   3   3 24.3549 2.60475  -2
  -1   3   3 24.3549 2.60475   1
   0   3   3 651.973 11.3758  -2
   0   3   3 651.973 11.3758   1
   1   3   3 1.56039 0.74508   1
  -1   3   3 34.5472 5.20561  -2
   1   3   3 34.5472 5.20561   1
   1   3   3 1.85796 0.58466   2
  -2   3   4 1502.22 27.8085  -2
   2   3   3 1502.22 27.8085   1
   2   3   3 1026.48 84.6911   1
  -3   3   4 1353.26 38.9670  -2
   3   3   3 1353.26 38.9670   1
   3   3   3 928.931 29.8883   2
   3   3   3 752.398 27.9914   1
  -4   3   5 661.816 17.6332  -2
   4   3   3 661.816 17.6332   1
   4   3   3 535.987 19.6655   2
   4   3   3 418.331 19.7463   1
  -5   3   5 31.9113 2.07393  -2
   5   3   3 31.9113 2.07393   1
   6   3   3 404.989 12.8833   2
   6   3   3 315.611 14.4164   1
  -6   3   6 372.728 22.9831  -2
   6   3   3 372.728 22.9831   1
  -6   3   5 405.962 39.7389  -2
   6   3   3 405.962 39.7389   1
  -7   3   6 44.6065 2.55954  -2
   7   3   3 44.6065 2.55954   1
  -8   3   6 2.73631 3.61910  -2
   8   3   3 2.73631 3.61910   1
   8   3   3 0.83937 3.76267   2
  -9   3   7 41.2963 3.52039  -2
   9   3   3 41.2963 3.52039   1
 -10   3   7 67.4033 4.48754  -2
  10   3   3 67.4033 4.48754   1
 -11   3   8 61.2409 8.20459  -2
  11   3   3 61.2409 8.20459   1
 -12   3   8 -0.6782 3.64852  -2
  12   3   3 -0.6782 3.64852   1
  13   3   3 3.30680 7.49356   1
 -14   3   9 5.92090 3.60541  -2
  14   3   3 5.92090 3.60541   1
 -15   3   9 -15.145 8.70852  -2
  15   3   3 -15.145 8.70852   1
 -15   4   3 21.4729 8.59802  -2
 -15   4   3 21.4729 8.59802   1
 -14   4   3 53.0472 5.16181  -2
 -14   4   3 53.0472 5.16181   1
 -12   4   2 5.57538 2.34822  -2
 -12   4   3 5.57538 2.34822   1
 -11   4   2 62.5839 5.16339  -2
 -11   4   3 62.5839 5.16339   1
 -10   4   1 71.6338 4.54082  -2
 -10   4   3 71.6338 4.54082   1
  -9   4   1 26.9789 3.67557  -2
  -9   4   3 26.9789 3.67557   1
   8   4   0 79.4552 4.67413  -2
  -8   4   3 79.4552 4.67413   1
  -8   4   3 79.8932 28.5377   2
   7   4   0 130.786 4.11642  -2
  -7   4   3 130.786 4.11642   1
   6   4   0 55.2187 4.19732  -2
  -6   4   3 55.2187 4.19732   1
  -6   4   3 54.2904 3.21058   2
  -6   4   3 43.9614 2.66195   1
   5   4   1 214.359 5.61860  -2
  -5   4   3 214.359 5.61860   1
   4   4   1 189.419 7.49016  -2
  -4   4   3 189.419 7.49016   1
  -4   4   3 28.5216 2.13377   1
  -4   4   3 32.4773 2.69270   2
  -3   4   3 81.0588 4.37865   1
   3   4   2 1141.23 35.0019  -2
  -3   4   3 1141.23 35.0019   1
  -3   4   3 95.4163 5.47961   2
   2   4   2 1130.53 23.9057  -2
  -2   4   3 1130.53 23.9057   1
  -1   4   3 161.224 3.77986   1
  -1   4   3 198.438 4.30392   2
   1   4   3 251.725 8.56093  -2
  -1   4   3 251.725 8.56093   1
   0   4   3 1733.55 28.9082  -2
   0   4   3 1733.55 28.9082   1
   1   4   3 95.4839 2.75802   2
   1   4   3 81.2041 2.09650   1
  -1   4   3 265.106 10.7172  -2
   1   4   3 265.106 10.7172   1
  -2   4   4 1120.16 31.8283  -2
   2   4   3 1120.16 31.8283   1
   2   4   3 924.866 53.9163   1
  -3   4   4 1661.82 47.9891  -2
   3   4   3 1661.82 47.9891   1
   3   4   3 309.837 13.6761   2
   3   4   3 259.462 9.64998   1
  -4   4   5 1170.97 28.9864  -2
   4   4   3 1170.97 28.9864   1
   4   4   3 225.389 13.8302   1
   4   4   3 297.082 13.0817   2
  -5   4   5 1031.19 24.4913  -2
   5   4   3 1031.19 24.4913   1
   6   4   3 77.9075 3.70969   2
   6   4   3 78.5255 3.95221   1
  -6   4   6 82.0142 6.57546  -2
   6   4   3 82.0142 6.57546   1
  -7   4   6 922.598 24.2912  -2
   7   4   3 922.598 24.2912   1
   8   4   3 40.9621 26.5202   1
  -8   4   6 51.1789 6.25126  -2
   8   4   3 51.1789 6.25126   1
   8   4   3 26.4787 6.20710   2
  -9   4   7 771.155 22.0864  -2
   9   4   3 771.155 22.0864   1
 -10   4   7 175.064 7.22432  -2
  10   4   3 175.064 7.22432   1
 -11   4   8 52.9079 5.24169  -2
  11   4   3 52.9079 5.24169   1
 -12   4   8 56.1739 3.94487  -2
  12   4   3 56.1739 3.94487   1
  13   4   3 7.07217 7.40454   1
 -14   4   9 50.3208 4.54019  -2
  14   4   3 50.3208 4.54019   1
 -15   4   9 20.2930 12.1219  -2
  15   4   3 20.2930 12.1219   1
 -15   5   3 -4.2136 8.50875  -2
 -15   5   3 -4.2136 8.50875   1
 -14   5   3 74.0097 6.22124  -2
 -14   5   3 74.0097 6.22124   1
 -12   5   2 100.669 4.67509  -2
 -12   5   3 100.669 4.67509   1
 -11   5   2 12.8274 4.02427  -2
 -11   5   3 12.8274 4.02427   1
 -10   5   1 215.239 9.29749  -2
 -10   5   3 215.239 9.29749   1
  -9   5   1 98.9491 5.40660  -2
  -9   5   3 98.9491 5.40660   1
   8   5   0 42.9795 4.23201  -2
  -8   5   3 42.9795 4.23201   1
   7   5   0 23.8809 1.70065  -2
  -7   5   3 23.8809 1.70065   1
  -6   5   3 221.300 9.85828   2
  -6   5   3 187.963 6.58624   1
   6   5   0 194.628 18.1382  -2
  -6   5   3 194.628 18.1382   1
   6   5   1 496.041 46.7156  -2
  -6   5   3 496.041 46.7156   1
   5   5   1 931.228 22.8672  -2
  -5   5   3 931.228 22.8672   1
   4   5   1 624.319 17.0140  -2
  -4   5   3 624.319 17.0140   1
  -4   5   3 120.124 8.81650   1
  -4   5   3 144.619 9.83068   2
  -3   5   3 4.37218 1.74773   1
  -3   5   3 4.79188 1.97378   2
   3   5   2 51.2973 2.84939  -2
  -3   5   3 51.2973 2.84939   1
   2   5   2 118.778 3.53292  -2
  -2   5   3 118.778 3.53292   1
  -1   5   3 536.973 13.2770   2
  -1   5   3 436.427 10.5683   1
   1   5   3 915.786 51.5656  -2
  -1   5   3 915.786 51.5656   1
   0   5   3 855.037 19.9400  -2
   0   5   3 855.037 19.9400   1
  -1   5   3 971.730 40.0194  -2
   1   5   3 971.730 40.0194   1
   1   5   3 518.350 12.8073   2
   1   5   3 419.290 10.5287   1
  -2   5   4 89.6063 2.74343  -2
   2   5   3 89.6063 2.74343   1
  -3   5   4 46.1856 2.00625  -2
   3   5   3 46.1856 2.00625   1
   3   5   3 54.3274 5.59366   2
  -4   5   5 36.7429 2.18995  -2
   4   5   3 36.7429 2.18995   1
   4   5   3 1.30940 1.67243   2
   4   5   3 7.28063 9.64326   1
  -5   5   5 1318.22 30.0030  -2
   5   5   3 1318.22 30.0030   1
   6   5   3 63.3608 4.36806   1
   6   5   3 77.8311 4.30411   2
  -6   5   6 352.743 21.2884  -2
   6   5   3 352.743 21.2884   1
  -7   5   6 292.786 9.77239  -2
   7   5   3 292.786 9.77239   1
  -8   5   6 189.436 7.76919  -2
   8   5   3 189.436 7.76919   1
  -9   5   7 253.012 9.21974  -2
   9   5   3 253.012 9.21974   1
 -10   5   7 298.424 10.7601  -2
  10   5   3 298.424 10.7601   1
 -11   5   8 169.723 9.56254  -2
  11   5   3 169.723 9.56254   1
 -12   5   8 31.2232 3.29005  -2
  12   5   3 31.2232 3.29005   1
 -13   5   8 119.055 14.9941  -2
  13   5   3 119.055 14.9941   1
 -14   5   9 66.1278 4.90918  -2
  14   5   3 66.1278 4.90918   1
 -15   5   9 2.76797 10.2387  -2
  15   5   3 2.76797 10.2387   1
 -15   6   3 55.9228 10.5530  -2
 -15   6   3 55.9228 10.5530   1
 -14   6   3 3.62790 4.47084  -2
 -14   6   3 3.62790 4.47084   1
 -12   6   2 42.0518 4.38492  -2
 -12   6   3 42.0518 4.38492   1
 -11   6   2 32.4720 4.22236  -2
 -11   6   3 32.4720 4.22236   1
 -10   6   1 64.0613 4.64242  -2
 -10   6   3 64.0613 4.64242   1
  -9   6   1 961.305 30.1528  -2
  -9   6   3 961.305 30.1528   1
   8   6   0 719.485 21.7526  -2
  -8   6   3 719.485 21.7526   1
   7   6   0 120.964 4.47605  -2
  -7   6   3 120.964 4.47605   1
   6   6   0 451.516 45.4417  -2
  -6   6   3 451.516 45.4417   1
  -6   6   3 41.1970 3.18905   1
  -6   6   3 59.5624 4.00204   2
   6   6   1 108.308 14.9303  -2
  -6   6   3 108.308 14.9303   1
   5   6   1 2570.56 66.9414  -2
  -5   6   3 2570.56 66.9414   1
   4   6   1 605.593 17.7274  -2
  -4   6   3 605.593 17.7274   1
   3   6   2 428.859 12.4271  -2
  -3   6   3 428.859 12.4271   1
   2   6   2 476.358 13.4398  -2
  -2   6   3 476.358 13.4398   1
  -1   6   3 1266.61 38.3226   1
  -1   6   3 1577.90 43.7198   2
   1   6   3 1657.67 50.0494  -2
  -1   6   3 1657.67 50.0494   1
   0   6   3 2126.14 44.9839  -2
   0   6   3 2126.14 44.9839   1
   1   6   3 295.255 9.16525   1
   1   6   3 389.992 11.8645   2
  -1   6   3 1820.83 104.289  -2
   1   6   3 1820.83 104.289   1
  -2   6   4 82.5909 2.87864  -2
   2   6   3 82.5909 2.87864   1
  -3   6   4 285.868 7.77515  -2
   3   6   3 285.868 7.77515   1
  -4   6   5 761.511 20.2582  -2
   4   6   3 761.511 20.2582   1
  -5   6   5 310.121 7.81284  -2
   5   6   3 310.121 7.81284   1
   6   6   3 2.74033 3.29132   2
  -6   6   6 36.5309 5.54385  -2
   6   6   3 36.5309 5.54385   1
   6   6   3 1.76198 3.73023   1
  -7   6   6 15.5327 1.69581  -2
   7   6   3 15.5327 1.69581   1
  -8   6   6 49.3019 4.92332  -2
   8   6   3 49.3019 4.92332   1
  -9   6   7 38.3366 4.09043  -2
   9   6   3 38.3366 4.09043   1
 -10   6   7 38.1725 4.40461  -2
  10   6   3 38.1725 4.40461   1
 -11   6   8 -0.2191 8.05787  -2
  11   6   3 -0.2191 8.05787   1
 -12   6   8 39.4583 4.01831  -2
  12   6   3 39.4583 4.01831   1
 -13   6   8 87.2455 18.5891  -2
  13   6   3 87.2455 18.5891   1
 -14   6   9 2.86571 4.44548  -2
  14   6   3 2.86571 4.44548   1
 -14   7   3 90.3398 6.75544  -2
 -14   7   3 90.3398 6.75544   1
 -12   7   2 -0.7873 3.55098  -2
 -12   7   3 -0.7873 3.55098   1
 -11   7   2 35.7929 4.50711  -2
 -11   7   3 35.7929 4.50711   1
 -10   7   1 128.467 5.81330  -2
 -10   7   3 128.467 5.81330   1
  -9   7   1 119.823 6.31162  -2
  -9   7   3 119.823 6.31162   1
   8   7   0 13.9482 3.12823  -2
  -8   7   3 13.9482 3.12823   1
   7   7   0 129.338 5.20411  -2
  -7   7   3 129.338 5.20411   1
   6   7   0 81.7106 13.8789  -2
  -6   7   3 81.7106 13.8789   1
   6   7   1 61.9352 11.2957  -2
  -6   7   3 61.9352 11.2957   1
  -6   7   3 11.1003 2.49035   2
  -6   7   3 13.4187 2.86759   1
   5   7   1 7.16989 1.87060  -2
  -5   7   3 7.16989 1.87060   1
   4   7   1 90.0841 3.78280  -2
  -4   7   3 90.0841 3.78280   1
   3   7   2 506.754 13.1812  -2
  -3   7   3 506.754 13.1812   1
   2   7   2 469.643 12.5355  -2
  -2   7   3 469.643 12.5355   1
  -1   7   3 80.0353 3.73675   2
   1   7   3 340.792 13.3589  -2
  -1   7   3 340.792 13.3589   1
  -1   7   3 63.1359 3.91305   1
   1   7   3 340.998 29.7720  -2
   1   7   2 340.998 29.7720  -2
  -1   7   3 340.998 29.7720   1
   0   7   3 57.9982 2.19190  -2
   0   7   3 57.9982 2.19190   1
   1   7   3 228.811 7.81302   1
   1   7   3 303.776 10.5010   2
  -1   7   3 302.999 15.8300  -2
   1   7   3 302.999 15.8300   1
  -1   7   4 531.166 47.8728  -2
   1   7   3 531.166 47.8728   1
  -2   7   4 1477.89 33.4412  -2
   2   7   3 1477.89 33.4412   1
  -3   7   4 486.346 12.6726  -2
   3   7   3 486.346 12.6726   1
  -4   7   5 79.5498 3.18141  -2
   4   7   3 79.5498 3.18141   1
  -5   7   5 323.056 9.71761  -2
   5   7   3 323.056 9.71761   1
   6   7   3 199.860 15.1281   2
  -6   7   6 384.982 31.4974  -2
   6   7   3 384.982 31.4974   1
   6   7   3 132.583 17.6333   1
  -7   7   6 656.072 16.1644  -2
   7   7   3 656.072 16.1644   1
  -8   7   6 312.851 9.50259  -2
   8   7   3 312.851 9.50259   1
  -9   7   7 127.068 7.08064  -2
   9   7   3 127.068 7.08064   1
 -10   7   7 61.8048 4.26147  -2
  10   7   3 61.8048 4.26147   1
 -11   7   8 239.438 14.2182  -2
  11   7   3 239.438 14.2182   1
 -12   7   8 91.2466 5.62935  -2
  12   7   3 91.2466 5.62935   1
 -13   7   8 31.8800 15.2416  -2
  13   7   3 31.8800 15.2416   1
 -14   7   9 21.2517 7.89691  -2
  14   7   3 21.2517 7.89691   1
 -14   8   3 26.2200 6.56980  -2
 -14   8   3 26.2200 6.56980   1
 -12   8   2 85.8718 5.34210  -2
 -12   8   3 85.8718 5.34210   1
 -11   8   2 74.7353 5.16600  -2
 -11   8   3 74.7353 5.16600   1
 -10   8   1 53.1611 3.64000  -2
 -10   8   3 53.1611 3.64000   1
  -9   8   1 193.053 7.21509  -2
  -9   8   3 193.053 7.21509   1
   8   8   0 33.5115 4.06673  -2
  -8   8   3 33.5115 4.06673   1
   7   8   0 240.557 7.07954  -2
  -7   8   3 240.557 7.07954   1
  -6   8   3 21.3717 12.0439   2
   6   8   0 90.4114 15.3047  -2
   6   8   1 90.4114 15.3047  -2
  -6   8   3 90.4114 15.3047   1
   6   8   0 25.6182 6.37396  -2
  -6   8   3 25.6182 6.37396   1
   5   8   1 231.874 9.45425  -2
  -5   8   3 231.874 9.45425   1
   4   8   1 87.7723 3.79180  -2
  -4   8   3 87.7723 3.79180   1
   3   8   2 146.957 5.54310  -2
  -3   8   3 146.957 5.54310   1
   2   8   2 70.1887 3.07799  -2
  -2   8   3 70.1887 3.07799   1
  -1   8   3 1.36287 1.64209   2
  -1   8   3 1.14439 1.87135   1
   1   8   3 75.9752 5.04739  -2
  -1   8   3 75.9752 5.04739   1
   0   8   3 13.0724 1.33972  -2
   0   8   3 13.0724 1.33972   1
   1   8   3 58.4038 3.71204   1
  -1   8   3 58.5751 4.27924  -2
   1   8   3 58.5751 4.27924   1
   1   8   3 64.0437 4.59113   2
  -2   8   4 478.629 12.4745  -2
   2   8   3 478.629 12.4745   1
  -3   8   4 354.395 9.71325  -2
   3   8   3 354.395 9.71325   1
  -4   8   5 130.586 5.15715  -2
   4   8   3 130.586 5.15715   1
  -5   8   5 -0.5293 1.66098  -2
   5   8   3 -0.5293 1.66098   1
  -6   8   6 348.955 24.9556  -2
   6   8   3 348.955 24.9556   1
   6   8   3 371.419 48.3159   2
   6   8   3 316.569 26.0284   1
  -7   8   6 141.518 5.04474  -2
   7   8   3 141.518 5.04474   1
  -8   8   6 51.1149 4.68624  -2
   8   8   3 51.1149 4.68624   1
   8   8   3 8.66372 14.8026   1
  -9   8   7 5.40991 3.14739  -2
   9   8   3 5.40991 3.14739   1
 -10   8   7 36.3337 4.18301  -2
  10   8   3 36.3337 4.18301   1
 -11   8   8 5.85263 5.09431  -2
  11   8   3 5.85263 5.09431   1
 -12   8   8 46.9178 4.06493  -2
  12   8   3 46.9178 4.06493   1
 -13   8   8 32.8259 12.1687  -2
  13   8   3 32.8259 12.1687   1
 -13   9   2 5.13755 9.56278  -2
 -13   9   3 5.13755 9.56278   1
 -12   9   2 85.3434 4.90867  -2
 -12   9   3 85.3434 4.90867   1
 -11   9   2 139.377 8.26179  -2
 -11   9   3 139.377 8.26179   1
 -10   9   1 137.105 6.70633  -2
 -10   9   3 137.105 6.70633   1
  -9   9   1 7.03656 3.42554  -2
  -9   9   3 7.03656 3.42554   1
   8   9   0 258.531 12.5361  -2
  -8   9   3 258.531 12.5361   1
  -8   9   3 149.438 25.9618   1
   7   9   0 509.565 14.8114  -2
  -7   9   3 509.565 14.8114   1
   6   9   0 226.512 9.99798  -2
  -6   9   3 226.512 9.99798   1
   5   9   1 172.004 7.01610  -2
  -5   9   3 172.004 7.01610   1
   4   9   1 468.967 16.8835  -2
  -4   9   3 468.967 16.8835   1
   3   9   2 157.171 6.82307  -2
  -3   9   3 157.171 6.82307   1
   2   9   2 475.279 16.4872  -2
  -2   9   3 475.279 16.4872   1
  -1   9   3 1.43292 2.36431   2
  -1   9   3 2.35130 2.35581   1
   1   9   3 296.917 14.4192  -2
  -1   9   3 296.917 14.4192   1
   0   9   3 30.0984 1.89212  -2
   0   9   3 30.0984 1.89212   1
  -1   9   3 238.754 9.92147  -2
   1   9   3 238.754 9.92147   1
   1   9   3 231.637 11.3873   1
   1   9   3 309.000 14.8234   2
  -2   9   4 318.258 10.6501  -2
   2   9   3 318.258 10.6501   1
  -3   9   4 555.366 21.9233  -2
   3   9   3 555.366 21.9233   1
   3   9   3 57.2486 8.40707   1
  -4   9   5 20.0911 2.27113  -2
   4   9   3 20.0911 2.27113   1
  -5   9   5 151.420 5.35514  -2
   5   9   3 151.420 5.35514   1
  -6   9   6 59.6254 6.30988  -2
   6   9   3 59.6254 6.30988   1
   6   9   3 86.0910 10.8786   1
  -7   9   6 190.072 5.90983  -2
   7   9   3 190.072 5.90983   1
  -8   9   6 97.9150 7.51153  -2
   8   9   3 97.9150 7.51153   1
   8   9   3 99.7450 21.4360   2
  -9   9   7 73.6074 5.56215  -2
   9   9   3 73.6074 5.56215   1
 -10   9   7 18.2800 4.03437  -2
  10   9   3 18.2800 4.03437   1
 -11   9   8 15.1810 5.38840  -2
  11   9   3 15.1810 5.38840   1
 -12   9   8 73.1633 4.91658  -2
  12   9   3 73.1633 4.91658   1
 -12  10   2 8.75007 3.39641  -2
 -12  10   3 8.75007 3.39641   1
 -11  10   2 33.1416 5.61229  -2
 -11  10   3 33.1416 5.61229   1
 -10  10   1 111.907 6.28556  -2
 -10  10   3 111.907 6.28556   1
  -9  10   1 34.5549 3.67996  -2
  -9  10   3 34.5549 3.67996   1
   8  10   0 43.9652 6.69469  -2
  -8  10   3 43.9652 6.69469   1
   7  10   0 73.9324 3.87300  -2
  -7  10   3 73.9324 3.87300   1
   6  10   0 156.086 10.9015  -2
  -6  10   3 156.086 10.9015   1
   5  10   1 61.4764 3.66919  -2
  -5  10   3 61.4764 3.66919   1
   4  10   1 241.420 9.93972  -2
  -4  10   3 241.420 9.93972   1
   3  10   2 71.8006 4.14766  -2
  -3  10   3 71.8006 4.14766   1
   2  10   2 18.6408 2.67997  -2
  -2  10   3 18.6408 2.67997   1
   1  10   3 45.9439 6.52734  -2
  -1  10   3 45.9439 6.52734   1
  -1  10   3 9.60298 6.23292   1
  -1  10   3 3.66903 7.01951   2
   0  10   3 317.417 9.66459  -2
   0  10   3 317.417 9.66459   1
  -1  10   3 37.6046 4.98224  -2
   1  10   3 37.6046 4.98224   1
   1  10   3 41.2307 8.57044   2
   1  10   3 31.7501 11.9385   1
  -2  10   4 52.1679 3.23668  -2
   2  10   3 52.1679 3.23668   1
  -3  10   4 108.033 5.94111  -2
   3  10   3 108.033 5.94111   1
  -4  10   5 230.784 7.74981  -2
   4  10   3 230.784 7.74981   1
  -5  10   5 291.711 8.33839  -2
   5  10   3 291.711 8.33839   1
   6  10   3 90.1072 5.58317   1
  -6  10   6 6.01029 45.9879  -2
   6  10   3 6.01029 45.9879   1
  -7  10   6 10.6480 1.77375  -2
   7  10   3 10.6480 1.77375   1
  -8  10   6 193.210 9.40051  -2
   8  10   3 193.210 9.40051   1
  -9  10   7 397.647 19.1090  -2
   9  10   3 397.647 19.1090   1
 -10  10   7 89.0864 6.15461  -2
  10  10   3 89.0864 6.15461   1
 -11  10   8 12.0657 6.57844  -2
  11  10   3 12.0657 6.57844   1
 -12  10   8 72.3819 4.77605  -2
  12  10   3 72.3819 4.77605   1
 -12  11   2 21.6987 4.27725  -2
 -12  11   3 21.6987 4.27725   1
 -11  11   2 24.8098 7.19826  -2
 -11  11   3 24.8098 7.19826   1
 -10  11   1 63.8965 5.71301  -2
 -10  11   3 63.8965 5.71301   1
  -9  11   1 4.90170 4.08383  -2
  -9  11   3 4.90170 4.08383   1
   8  11   0 11.8861 7.68815  -2
  -8  11   3 11.8861 7.68815   1
   7  11   0 78.2242 4.67854  -2
  -7  11   3 78.2242 4.67854   1
   5  11   1 37.7925 3.33849  -2
  -5  11   3 37.7925 3.33849   1
   4  11   1 18.8628 5.16821  -2
  -4  11   3 18.8628 5.16821   1
   3  11   2 96.3357 5.38555  -2
  -3  11   3 96.3357 5.38555   1
   2  11   2 133.920 5.90420  -2
  -2  11   3 133.920 5.90420   1
   1  11   3 271.056 13.3155  -2
  -1  11   3 271.056 13.3155   1
  -1  11   3 246.691 42.6174   1
   0  11   3 2.56585 1.51610  -2
   0  11   3 2.56585 1.51610   1
  -1  11   3 319.012 15.6850  -2
   1  11   3 319.012 15.6850   1
   1  11   3 24.9324 15.3006   2
   1  11   3 18.0926 4.81083   1
  -2  11   4 181.442 7.87073  -2
   2  11   3 181.442 7.87073   1
  -3  11   4 141.615 6.92024  -2
   3  11   3 141.615 6.92024   1
  -4  11   5 29.8882 3.20892  -2
   4  11   3 29.8882 3.20892   1
  -5  11   5 191.360 6.98520  -2
   5  11   3 191.360 6.98520   1
   6  11   3 4.30276 1.97261   1
  -6  11   6 305.413 74.6479  -2
   6  11   3 305.413 74.6479   1
  -7  11   6 4.25570 2.15036  -2
   7  11   3 4.25570 2.15036   1
  -8  11   6 22.3621 6.31066  -2
   8  11   3 22.3621 6.31066   1
  -9  11   7 52.2981 5.93813  -2
   9  11   3 52.2981 5.93813   1
 -10  11   7 30.7045 5.23661  -2
  10  11   3 30.7045 5.23661   1
 -11  11   8 13.9274 6.42482  -2
  11  11   3 13.9274 6.42482   1
 -12  11   8 -3.3229 3.68514  -2
  12  11   3 -3.3229 3.68514   1
 -12  12   3 88.0131 13.4600   2
 -12  12   2 80.9198 8.39526  -2
 -12  12   3 80.9198 8.39526   1
 -12  12   3 82.8324 13.0573   1
 -11  12   2 106.007 13.2467  -2
 -11  12   3 106.007 13.2467   1
 -10  12   1 25.3764 4.61625  -2
 -10  12   3 25.3764 4.61625   1
  -9  12   1 234.279 10.4525  -2
  -9  12   3 234.279 10.4525   1
   8  12   0 229.719 14.4382  -2
  -8  12   3 229.719 14.4382   1
   7  12   0 61.7226 4.18169  -2
  -7  12   3 61.7226 4.18169   1
   5  12   1 231.400 7.59940  -2
  -5  12   3 231.400 7.59940   1
   4  12   1 116.951 5.58432  -2
  -4  12   3 116.951 5.58432   1
   3  12   2 32.5142 4.01916  -2
  -3  12   3 32.5142 4.01916   1
   2  12   2 61.0197 4.30537  -2
  -2  12   3 61.0197 4.30537   1
   1  12   3 261.919 13.4725  -2
  -1  12   3 261.919 13.4725   1
  -1  12   3 122.233 29.5283   1
   0  12   3 149.758 5.15841  -2
   0  12   3 149.758 5.15841   1
  -1  12   3 257.550 14.1673  -2
   1  12   3 257.550 14.1673   1
   1  12   3 111.839 28.3723   2
  -2  12   4 32.4980 3.03287  -2
   2  12   3 32.4980 3.03287   1
  -3  12   4 166.391 7.47376  -2
   3  12   3 166.391 7.47376   1
  -4  12   5 66.5536 3.84593  -2
   4  12   3 66.5536 3.84593   1
  -5  12   5 507.047 14.8934  -2
   5  12   3 507.047 14.8934   1
  -6  12   6 55.5484 14.6690  -2
   6  12   3 55.5484 14.6690   1
  -6  12   5 0.32398 12.7023  -2
   6  12   3 0.32398 12.7023   1
  -7  12   6 3.89632 3.13626  -2
   7  12   3 3.89632 3.13626   1
  -8  12   6 23.4133 6.05527  -2
   8  12   3 23.4133 6.05527   1
  -9  12   7 117.080 6.54596  -2
   9  12   3 117.080 6.54596   1
 -10  12   7 10.7489 4.24130  -2
  10  12   3 10.7489 4.24130   1
 -11  12   8 -0.2283 5.37536  -2
  11  12   3 -0.2283 5.37536   1
 -10  13   1 17.9099 5.76059  -2
 -10  13   3 17.9099 5.76059   1
  -9  13   1 2.01699 3.87039  -2
  -9  13   3 2.01699 3.87039   1
   8  13   0 10.9855 8.12455  -2
  -8  13   3 10.9855 8.12455   1
   7  13   0 96.9666 4.86522  -2
  -7  13   3 96.9666 4.86522   1
   5  13   1 9.38317 3.15499  -2
  -5  13   3 9.38317 3.15499   1
   4  13   1 82.9285 5.22336  -2
  -4  13   3 82.9285 5.22336   1
   3  13   2 465.995 15.1315  -2
  -3  13   3 465.995 15.1315   1
   2  13   2 382.927 13.8315  -2
  -2  13   3 382.927 13.8315   1
   1  13   3 146.739 13.0917  -2
  -1  13   3 146.739 13.0917   1
  -1  13   3 48.3593 25.3120   1
   0  13   3 30.8995 2.25142  -2
   0  13   3 30.8995 2.25142   1
  -1  13   3 168.073 8.84933  -2
   1  13   3 168.073 8.84933   1
  -2  13   4 285.943 10.1478  -2
   2  13   3 285.943 10.1478   1
  -3  13   4 80.2198 4.68438  -2
   3  13   3 80.2198 4.68438   1
  -4  13   5 17.1901 3.90110  -2
   4  13   3 17.1901 3.90110   1
  -5  13   5 25.5404 4.09240  -2
   5  13   3 25.5404 4.09240   1
  -6  13   5 118.257 19.2393  -2
   6  13   3 118.257 19.2393   1
  -6  13   6 106.684 70.5726  -2
   6  13   3 106.684 70.5726   1
  -7  13   6 46.8757 3.67671  -2
   7  13   3 46.8757 3.67671   1
  -8  13   6 82.8786 8.66210  -2
   8  13   3 82.8786 8.66210   1
  -9  13   7 27.4806 5.50635  -2
   9  13   3 27.4806 5.50635   1
 -10  13   7 2.84319 4.06124  -2
  10  13   3 2.84319 4.06124   1
 -10  14   1 6.98666 5.92382  -2
 -10  14   3 6.98666 5.92382   1
  -9  14   1 7.54029 4.27904  -2
  -9  14   3 7.54029 4.27904   1
   8  14   0 14.3322 5.86960  -2
  -8  14   3 14.3322 5.86960   1
   7  14   0 20.5320 2.93049  -2
  -7  14   3 20.5320 2.93049   1
   5  14   1 67.6399 4.24075  -2
  -5  14   3 67.6399 4.24075   1
   4  14   1 45.9684 4.31888  -2
  -4  14   3 45.9684 4.31888   1
   3  14   2 19.9823 4.04181  -2
  -3  14   3 19.9823 4.04181   1
   2  14   2 78.4578 4.53661  -2
  -2  14   3 78.4578 4.53661   1
   1  14   3 72.3003 14.4780  -2
  -1  14   3 72.3003 14.4780   1
   0  14   3 16.2061 1.88938  -2
   0  14   3 16.2061 1.88938   1
  -1  14   3 51.7780 7.63147  -2
   1  14   3 51.7780 7.63147   1
  -2  14   4 4.12417 3.14336  -2
   2  14   3 4.12417 3.14336   1
  -3  14   4 22.2152 4.37914  -2
   3  14   3 22.2152 4.37914   1
  -4  14   5 34.6433 5.76285  -2
   4  14   3 34.6433 5.76285   1
  -5  14   5 44.4886 4.02073  -2
   5  14   3 44.4886 4.02073   1
  -6  14   6 107.436 12.6071  -2
   6  14   3 107.436 12.6071   1
  -7  14   6 7.20356 2.59312  -2
   7  14   3 7.20356 2.59312   1
  -8  14   6 10.2998 6.51741  -2
   8  14   3 10.2998 6.51741   1
  -9  14   7 17.0855 4.69666  -2
   9  14   3 17.0855 4.69666   1
   8  15   0 50.0098 8.23209  -2
  -8  15   3 50.0098 8.23209   1
   7  15   0 25.2433 3.43473  -2
  -7  15   3 25.2433 3.43473   1
   5  15   1 7.72522 3.39035  -2
  -5  15   3 7.72522 3.39035   1
   4  15   1 97.4606 8.42412  -2
  -4  15   3 97.4606 8.42412   1
   3  15   2 41.6659 5.35759  -2
  -3  15   3 41.6659 5.35759   1
   2  15   2 65.6591 4.54459  -2
  -2  15   3 65.6591 4.54459   1
   0  15   3 17.2237 2.16651  -2
   0  15   3 17.2237 2.16651   1
  -1  15   3 153.639 19.8945  -2
   1  15   3 153.639 19.8945   1
  -2  15   4 148.062 7.19404  -2
   2  15   3 148.062 7.19404   1
  -3  15   4 106.944 7.63143  -2
   3  15   3 106.944 7.63143   1
  -4  15   5 10.8267 8.83627  -2
   4  15   3 10.8267 8.83627   1
  -5  15   5 66.2398 4.44145  -2
   5  15   3 66.2398 4.44145   1
  -6  15   6 64.9914 17.8476  -2
   6  15   3 64.9914 17.8476   1
  -6  15   5 54.7533 16.7958  -2
   6  15   3 54.7533 16.7958   1
  -7  15   6 48.7076 3.46683  -2
   7  15   3 48.7076 3.46683   1
  -8  15   6 67.9826 8.30543  -2
   8  15   3 67.9826 8.30543   1
   7  16   0 4.35170 4.00401  -2
  -7  16   3 4.35170 4.00401   1
   5  16   1 85.7803 5.11680  -2
  -5  16   3 85.7803 5.11680   1
   4  16   1 26.7635 6.96485  -2
  -4  16   3 26.7635 6.96485   1
   3  16   2 19.1209 5.79506  -2
  -3  16   3 19.1209 5.79506   1
   2  16   2 44.5009 4.00704  -2
  -2  16   3 44.5009 4.00704   1
   1  16   3 87.6585 11.4004  -2
  -1  16   3 87.6585 11.4004   1
   0  16   3 121.305 5.43149  -2
   0  16   3 121.305 5.43149   1
  -1  16   3 69.8766 14.9217  -2
   1  16   3 69.8766 14.9217   1
  -2  16   4 6.38322 3.83636  -2
   2  16   3 6.38322 3.83636   1
  -3  16   4 16.0118 4.25634  -2
   3  16   3 16.0118 4.25634   1
  -4  16   5 126.903 9.35365  -2
   4  16   3 126.903 9.35365   1
  -5  16   5 12.6833 3.51560  -2
   5  16   3 12.6833 3.51560   1
  -6  16   5 55.4241 9.63176  -2
   6  16   3 55.4241 9.63176   1
  -7  16   6 2.23705 4.37937  -2
   7  16   3 2.23705 4.37937   1
   5  17   1 15.3212 4.09197  -2
  -5  17   3 15.3212 4.09197   1
   4  17   1 28.4718 6.94267  -2
  -4  17   3 28.4718 6.94267   1
   3  17   2 3.78142 4.99708  -2
  -3  17   3 3.78142 4.99708   1
   2  17   2 4.85685 2.99059  -2
  -2  17   3 4.85685 2.99059   1
   1  17   3 8.67706 9.62815  -2
  -1  17   3 8.67706 9.62815   1
   0  17   3 10.0471 2.91109  -2
   0  17   3 10.0471 2.91109   1
  -1  17   3 13.3223 11.7951  -2
   1  17   3 13.3223 11.7951   1
  -2  17   4 63.4048 5.34470  -2
   2  17   3 63.4048 5.34470   1
  -3  17   4 27.1479 6.38003  -2
   3  17   3 27.1479 6.38003   1
  -4  17   5 32.8075 6.32499  -2
   4  17   3 32.8075 6.32499   1
  -5  17   5 7.10088 4.32951  -2
   5  17   3 7.10088 4.32951   1
  -1  18   3 23.2603 6.38366   2
  -1  18   3 12.3566 6.83198   1
   0  18   3 0.61312 4.15888  -2
   0  18   3 0.61312 4.15888   1
 -15   0   2 2.10826 9.34791  -2
 -15   0   4 2.10826 9.34791   1
 -14   0   2 465.678 26.3355  -2
 -14   0   4 465.678 26.3355   1
 -12   0   1 20.8824 3.83618  -2
 -12   0   4 20.8824 3.83618   1
 -11   0   1 35.6333 4.54375  -2
 -11   0   4 35.6333 4.54375   1
  10   0   0 450.401 15.8089  -2
 -10   0   4 450.401 15.8089   1
   9   0   0 17.2103 2.25265  -2
  -9   0   4 17.2103 2.25265   1
   8   0   1 143.903 8.09692  -2
  -8   0   4 143.903 8.09692   1
  -8   0   4 97.2055 33.2267   2
  -8   0   4 127.740 12.1988   1
   7   0   1 8.33843 1.56282  -2
  -7   0   4 8.33843 1.56282   1
   6   0   1 74.7945 8.84916  -2
  -6   0   4 74.7945 8.84916   1
  -6   0   4 88.3572 4.22914   1
  -6   0   4 104.194 5.86890   2
   5   0   2 1.52999 1.43673  -2
  -5   0   4 1.52999 1.43673   1
   4   0   2 462.477 19.0586  -2
  -4   0   4 462.477 19.0586   1
  -4   0   4 316.139 11.9575   1
  -4   0   4 384.611 20.0405   2
  -3   0   4 2.60673 0.81493   1
  -3   0   4 1.71729 1.55376   2
   3   0   3 387.371 16.2778  -2
  -3   0   4 387.371 16.2778   1
   2   0   3 69.1729 2.39471  -2
  -2   0   4 69.1729 2.39471   1
   1   0   4 1.70739 2.32324  -2
  -1   0   4 1.70739 2.32324   1
  -1   0   4 1.89796 0.92094   2
  -1   0   4 1.33604 0.77056   1
   0   0   4 25.7850 1.22838  -2
   0   0   4 25.7850 1.22838   1
   1   0   4 1.24633 0.77238   2
   1   0   4 -0.4111 0.78751   1
  -1   0   4 5.04246 2.38301  -2
   1   0   4 5.04246 2.38301   1
  -2   0   5 239.357 6.95984  -2
   2   0   4 239.357 6.95984   1
  -3   0   5 486.611 13.5138  -2
   3   0   4 486.611 13.5138   1
   3   0   4 0.29023 1.09479   2
   3   0   4 1.94376 2.24549   1
  -4   0   6 94.5389 4.61369  -2
   4   0   4 94.5389 4.61369   1
   4   0   4 90.0102 9.16753   2
   4   0   4 78.2905 8.48621   1
  -5   0   6 -0.1122 1.81209  -2
   5   0   4 -0.1122 1.81209   1
  -6   0   7 57.8117 6.70599  -2
   6   0   4 57.8117 6.70599   1
   6   0   4 67.4259 4.08598   1
   6   0   4 73.2453 3.88092   2
  -7   0   7 122.648 4.98641  -2
   7   0   4 122.648 4.98641   1
   8   0   4 345.156 28.3122   2
  -8   0   7 288.108 12.9784  -2
   8   0   4 288.108 12.9784   1
  -9   0   8 -2.9242 1.18979  -2
   9   0   4 -2.9242 1.18979   1
 -10   0   8 -0.4797 5.63076  -2
  10   0   4 -0.4797 5.63076   1
 -11   0   9 16.5521 6.46004  -2
  11   0   4 16.5521 6.46004   1
 -12   0   9 -4.6920 4.91034  -2
  12   0   4 -4.6920 4.91034   1
 -14   0  10 32.6380 5.41192  -2
  14   0   4 32.6380 5.41192   1
 -15   0  10 6.56086 13.5033  -2
  15   0   4 6.56086 13.5033   1
 -15   1   2 7.29329 5.61294  -2
 -15   1   4 7.29329 5.61294   1
 -14   1   2 81.8069 6.75263  -2
 -14   1   4 81.8069 6.75263   1
 -12   1   1 92.9082 4.70227  -2
 -12   1   4 92.9082 4.70227   1
 -11   1   1 24.0756 1.83986  -2
 -11   1   4 24.0756 1.83986   1
  10   1   0 671.891 19.4013  -2
 -10   1   4 671.891 19.4013   1
   9   1   0 30.7471 1.51815  -2
  -9   1   4 30.7471 1.51815   1
   8   1   1 290.706 9.50274  -2
  -8   1   4 290.706 9.50274   1
  -8   1   4 297.584 41.4904   2
  -8   1   4 249.237 18.4093   1
   7   1   1 327.943 7.23656  -2
  -7   1   4 327.943 7.23656   1
  -6   1   4 32.7241 1.74470   1
   6   1   1 178.708 9.26632  -2
  -6   1   4 178.708 9.26632   1
  -6   1   4 33.9958 2.31873   2
   5   1   2 210.460 5.23116  -2
  -5   1   4 210.460 5.23116   1
  -4   1   4 270.227 7.68515   1
   4   1   2 413.780 15.3753  -2
  -4   1   4 413.780 15.3753   1
  -4   1   4 333.201 10.7248   2
   3   1   3 356.755 9.38383  -2
  -3   1   4 356.755 9.38383   1
  -3   1   4 365.926 11.7935   1
  -3   1   4 405.312 11.3103   2
   2   1   3 1720.24 31.0171  -2
  -2   1   4 1720.24 31.0171   1
   1   1   4 311.208 15.6682  -2
  -1   1   4 311.208 15.6682   1
  -1   1   4 1.50360 0.42321   1
  -1   1   4 1.52673 0.51617   2
   0   1   4 784.108 13.2651  -2
   0   1   4 784.108 13.2651   1
   1   1   4 337.847 6.48985   2
   1   1   4 284.338 5.78916   1
  -1   1   4 256.088 13.2969  -2
   1   1   4 256.088 13.2969   1
  -2   1   5 1083.20 20.5230  -2
   2   1   4 1083.20 20.5230   1
  -3   1   5 180.108 4.27538  -2
   3   1   4 180.108 4.27538   1
   3   1   4 209.709 6.93544   2
   3   1   4 181.408 10.6364   1
  -4   1   6 1025.52 24.8943  -2
   4   1   4 1025.52 24.8943   1
   4   1   4 930.806 38.0062   2
   4   1   4 827.702 45.6148   1
  -5   1   6 943.502 21.0618  -2
   5   1   4 943.502 21.0618   1
   6   1   4 862.686 28.7550   2
  -6   1   7 957.628 39.6646  -2
   6   1   4 957.628 39.6646   1
   6   1   4 690.167 27.0186   1
  -7   1   7 678.903 16.6541  -2
   7   1   4 678.903 16.6541   1
  -8   1   7 431.826 17.8548  -2
   8   1   4 431.826 17.8548   1
   8   1   4 442.333 78.8578   1
   8   1   4 503.444 41.6482   2
  -9   1   8 71.2632 4.58032  -2
   9   1   4 71.2632 4.58032   1
 -10   1   8 43.1809 2.42764  -2
  10   1   4 43.1809 2.42764   1
 -11   1   9 186.701 9.08154  -2
  11   1   4 186.701 9.08154   1
 -12   1   9 267.036 11.1944  -2
  12   1   4 267.036 11.1944   1
 -14   1  10 5.46962 3.67214  -2
  14   1   4 5.46962 3.67214   1
 -15   1  10 53.9259 10.4167  -2
  15   1   4 53.9259 10.4167   1
 -15   2   2 3.73707 6.74111  -2
 -15   2   4 3.73707 6.74111   1
 -14   2   2 52.2704 5.80065  -2
 -14   2   4 52.2704 5.80065   1
 -12   2   1 116.566 5.15813  -2
 -12   2   4 116.566 5.15813   1
 -11   2   1 112.183 7.04719  -2
 -11   2   4 112.183 7.04719   1
  10   2   0 33.5929 2.78337  -2
 -10   2   4 33.5929 2.78337   1
   9   2   0 126.432 6.73234  -2
  -9   2   4 126.432 6.73234   1
   8   2   1 68.2362 3.25552  -2
  -8   2   4 68.2362 3.25552   1
  -8   2   4 53.6962 3.47602   1
  -8   2   4 50.0096 17.0808   2
   7   2   1 819.643 20.3919  -2
  -7   2   4 819.643 20.3919   1
  -6   2   4 229.932 6.06413   1
  -6   2   4 278.041 9.33438   2
   6   2   1 290.280 12.5519  -2
  -6   2   4 290.280 12.5519   1
   5   2   2 500.587 11.1679  -2
  -5   2   4 500.587 11.1679   1
  -4   2   4 33.2707 1.83623   1
  -4   2   4 43.0970 2.27654   2
   4   2   2 368.756 11.6509  -2
  -4   2   4 368.756 11.6509   1
   3   2   3 632.632 15.3341  -2
  -3   2   4 632.632 15.3341   1
  -3   2   4 578.289 15.9036   1
  -3   2   4 680.949 22.5966   2
   2   2   3 754.708 14.4939  -2
  -2   2   4 754.708 14.4939   1
  -1   2   4 72.4668 1.75514   1
  -1   2   4 86.0720 2.17303   2
   1   2   4 99.0608 6.17498  -2
  -1   2   4 99.0608 6.17498   1
   0   2   4 4287.33 74.3937  -2
   0   2   4 4287.33 74.3937   1
   1   2   4 23.6680 1.01309   1
   1   2   4 26.7794 0.93757   2
  -1   2   4 111.760 6.75628  -2
   1   2   4 111.760 6.75628   1
  -2   2   5 1329.92 25.9198  -2
   2   2   4 1329.92 25.9198   1
   3   2   4 431.555 15.1953   1
  -3   2   5 795.610 23.4692  -2
   3   2   4 795.610 23.4692   1
   3   2   4 509.855 19.9133   2
  -4   2   6 2002.36 46.1024  -2
   4   2   4 2002.36 46.1024   1
   4   2   4 683.883 57.4849   1
   4   2   4 846.016 40.4384   2
  -5   2   6 418.947 9.94355  -2
   5   2   4 418.947 9.94355   1
   6   2   4 44.8357 2.82882   1
  -6   2   6 134.866 16.7441  -2
   6   2   4 134.866 16.7441   1
   6   2   4 62.9477 3.50909   2
  -6   2   7 386.517 19.3918  -2
   6   2   4 386.517 19.3918   1
  -7   2   7 215.785 6.36956  -2
   7   2   4 215.785 6.36956   1
  -8   2   7 256.699 16.0974  -2
   8   2   4 256.699 16.0974   1
   8   2   4 2.01184 12.9675   1
   8   2   4 2.85915 3.06214   2
  -9   2   8 585.891 20.9036  -2
   9   2   4 585.891 20.9036   1
 -10   2   8 162.936 7.25176  -2
  10   2   4 162.936 7.25176   1
 -11   2   9 99.4021 5.36086  -2
  11   2   4 99.4021 5.36086   1
 -12   2   9 48.3469 5.72274  -2
  12   2   4 48.3469 5.72274   1
 -14   2  10 112.350 6.60274  -2
  14   2   4 112.350 6.60274   1
 -15   2  10 38.0675 9.88644  -2
  15   2   4 38.0675 9.88644   1
 -15   3   2 88.5762 7.85385  -2
 -15   3   4 88.5762 7.85385   1
 -14   3   2 16.2240 3.73839  -2
 -14   3   4 16.2240 3.73839   1
 -12   3   1 355.286 12.7117  -2
 -12   3   4 355.286 12.7117   1
 -11   3   1 329.898 12.6864  -2
 -11   3   4 329.898 12.6864   1
  10   3   0 11.4893 2.63903  -2
 -10   3   4 11.4893 2.63903   1
   9   3   0 148.099 6.57102  -2
  -9   3   4 148.099 6.57102   1
   8   3   1 443.884 18.0731  -2
  -8   3   4 443.884 18.0731   1
  -8   3   4 15.4126 5.04477   1
  -8   3   4 -7.9825 9.25456   2
   7   3   1 789.168 18.2160  -2
  -7   3   4 789.168 18.2160   1
  -6   3   4 23.8680 2.52041   2
  -6   3   4 20.4609 1.61877   1
   6   3   1 1148.96 54.2591  -2
  -6   3   4 1148.96 54.2591   1
   5   3   2 827.581 18.6635  -2
  -5   3   4 827.581 18.6635   1
  -4   3   4 124.359 5.16006   2
   4   3   2 110.254 3.79675  -2
  -4   3   4 110.254 3.79675   1
  -4   3   4 106.627 5.44695   1
  -3   3   4 545.684 18.0685   1
   3   3   3 1413.67 37.7869  -2
  -3   3   4 1413.67 37.7869   1
  -3   3   4 624.764 21.5034   2
   2   3   3 1649.39 30.2146  -2
  -2   3   4 1649.39 30.2146   1
   1   3   4 1929.39 93.2912  -2
  -1   3   4 1929.39 93.2912   1
  -1   3   4 510.902 11.1806   2
  -1   3   4 413.231 9.34457   1
   0   3   4 2.87487 0.66574  -2
   0   3   4 2.87487 0.66574   1
   1   3   4 1537.81 31.0345   2
   1   3   4 1240.68 26.1670   1
  -1   3   4 1764.87 76.7286  -2
   1   3   4 1764.87 76.7286   1
  -2   3   5 248.046 6.09371  -2
   2   3   4 248.046 6.09371   1
  -3   3   5 209.111 5.88371  -2
   3   3   4 209.111 5.88371   1
   3   3   4 158.056 8.23825   1
   3   3   4 194.759 8.85046   2
   4   3   4 72.2881 6.37588   1
  -4   3   6 287.937 8.26605  -2
   4   3   4 287.937 8.26605   1
   4   3   4 112.605 6.04357   2
  -5   3   6 443.580 11.0066  -2
   5   3   4 443.580 11.0066   1
   6   3   4 -0.3594 1.53232   2
  -6   3   7 54.5835 3.11805  -2
   6   3   4 54.5835 3.11805   1
   6   3   4 1.83264 1.00416   1
  -7   3   7 27.1773 2.28845  -2
   7   3   4 27.1773 2.28845   1
  -8   3   7 18.9857 4.09197  -2
   8   3   4 18.9857 4.09197   1
   8   3   4 8.38680 17.7185   1
   8   3   4 0.88394 3.65489   2
  -9   3   8 21.4197 3.37786  -2
   9   3   4 21.4197 3.37786   1
 -10   3   8 22.7324 3.34831  -2
  10   3   4 22.7324 3.34831   1
 -11   3   9 56.1305 4.44205  -2
  11   3   4 56.1305 4.44205   1
 -12   3   9 40.8927 5.22584  -2
  12   3   4 40.8927 5.22584   1
 -13   3  10 9.01410 16.7005  -2
  13   3   4 9.01410 16.7005   1
 -14   3  10 9.11589 3.36068  -2
  14   3   4 9.11589 3.36068   1
 -15   3  10 -0.8261 11.1627  -2
  15   3   4 -0.8261 11.1627   1
 -15   4   2 36.3355 7.24002  -2
 -15   4   4 36.3355 7.24002   1
 -14   4   2 24.1365 4.04620  -2
 -14   4   4 24.1365 4.04620   1
 -12   4   1 20.6888 3.14236  -2
 -12   4   4 20.6888 3.14236   1
 -11   4   1 25.2120 4.41938  -2
 -11   4   4 25.2120 4.41938   1
  10   4   0 24.5594 2.84723  -2
 -10   4   4 24.5594 2.84723   1
   9   4   0 10.2093 2.64590  -2
  -9   4   4 10.2093 2.64590   1
  -8   4   4 127.141 8.39277   1
   8   4   1 270.203 10.7650  -2
  -8   4   4 270.203 10.7650   1
   7   4   1 187.317 5.18934  -2
  -7   4   4 187.317 5.18934   1
  -6   4   4 246.119 9.48964   2
  -6   4   4 195.260 6.97122   1
   6   4   1 288.877 12.7898  -2
  -6   4   4 288.877 12.7898   1
   5   4   2 609.085 14.6694  -2
  -5   4   4 609.085 14.6694   1
   4   4   2 786.286 23.5934  -2
  -4   4   4 786.286 23.5934   1
  -4   4   4 848.334 45.0590   2
  -4   4   4 674.378 24.5613   1
   3   4   3 1504.86 41.4228  -2
  -3   4   4 1504.86 41.4228   1
  -3   4   4 1188.05 48.9572   1
  -3   4   4 1496.09 51.8359   2
   2   4   3 1275.59 27.9036  -2
  -2   4   4 1275.59 27.9036   1
  -1   4   4 1014.25 23.6820   1
  -1   4   4 1210.09 25.6925   2
   1   4   4 1538.12 87.7037  -2
  -1   4   4 1538.12 87.7037   1
   0   4   4 1550.39 27.3348  -2
   0   4   4 1550.39 27.3348   1
   1   4   4 469.862 12.1779   1
  -1   4   4 1669.70 79.8085  -2
   1   4   4 1669.70 79.8085   1
   1   4   4 590.733 14.0584   2
  -2   4   5 1953.03 47.4734  -2
   2   4   4 1953.03 47.4734   1
  -3   4   5 452.855 11.7421  -2
   3   4   4 452.855 11.7421   1
   3   4   4 179.158 8.28502   2
   3   4   4 142.109 12.0520   1
  -4   4   6 792.428 18.8907  -2
   4   4   4 792.428 18.8907   1
   4   4   4 142.217 7.78382   2
  -5   4   6 368.159 9.51830  -2
   5   4   4 368.159 9.51830   1
   6   4   4 53.2420 3.19071   2
  -6   4   7 159.614 8.60184  -2
   6   4   4 159.614 8.60184   1
   6   4   4 45.9284 3.69186   1
  -7   4   7 435.291 14.7163  -2
   7   4   4 435.291 14.7163   1
   8   4   4 -9.1698 17.0677   1
  -8   4   7 255.098 10.4243  -2
   8   4   4 255.098 10.4243   1
   8   4   4 16.6684 5.27829   2
  -9   4   8 113.844 5.82078  -2
   9   4   4 113.844 5.82078   1
 -10   4   8 541.093 16.1293  -2
  10   4   4 541.093 16.1293   1
 -11   4   9 96.7015 7.00763  -2
  11   4   4 96.7015 7.00763   1
 -12   4   9 15.8588 3.26057  -2
  12   4   4 15.8588 3.26057   1
 -13   4   9 139.839 23.9543  -2
  13   4   4 139.839 23.9543   1
  13   4   4 70.5972 13.9582   1
 -14   4  10 233.962 9.72768  -2
  14   4   4 233.962 9.72768   1
 -15   4  10 54.8245 13.2374  -2
  15   4   4 54.8245 13.2374   1
 -15   5   2 20.3651 7.52660  -2
 -15   5   4 20.3651 7.52660   1
 -14   5   2 9.51511 3.67593  -2
 -14   5   4 9.51511 3.67593   1
 -12   5   1 14.7628 3.42273  -2
 -12   5   4 14.7628 3.42273   1
 -11   5   1 86.5659 7.05903  -2
 -11   5   4 86.5659 7.05903   1
  10   5   0 123.950 4.78444  -2
 -10   5   4 123.950 4.78444   1
   9   5   0 310.060 10.6792  -2
  -9   5   4 310.060 10.6792   1
   8   5   1 38.3308 2.31536  -2
  -8   5   4 38.3308 2.31536   1
   7   5   1 187.915 6.17291  -2
  -7   5   4 187.915 6.17291   1
  -6   5   4 89.7832 4.91927   2
  -6   5   4 79.2538 3.41416   1
   6   5   1 400.000 25.3041  -2
  -6   5   4 400.000 25.3041   1
   6   5   2 120.796 12.4783  -2
  -6   5   4 120.796 12.4783   1
   5   5   2 246.578 6.71969  -2
  -5   5   4 246.578 6.71969   1
  -4   5   4 825.491 39.5747   1
   4   5   2 1554.03 42.2904  -2
  -4   5   4 1554.03 42.2904   1
   3   5   3 56.8474 2.65177  -2
  -3   5   4 56.8474 2.65177   1
  -3   5   4 4.00524 2.78820   1
   2   5   3 72.3359 2.72822  -2
  -2   5   4 72.3359 2.72822   1
  -1   5   4 3.10750 0.94476   1
   1   5   4 11.4410 2.09869  -2
  -1   5   4 11.4410 2.09869   1
  -1   5   4 6.63108 0.99601   2
   0   5   4 3280.47 68.9817  -2
   0   5   4 3280.47 68.9817   1
   1   5   4 9.35563 1.14274   2
  -1   5   4 11.5980 2.18584  -2
   1   5   4 11.5980 2.18584   1
   1   5   4 6.99018 1.01291   1
  -2   5   5 213.289 6.09303  -2
   2   5   4 213.289 6.09303   1
  -3   5   5 91.9905 3.33610  -2
   3   5   4 91.9905 3.33610   1
  -4   5   6 495.340 12.2476  -2
   4   5   4 495.340 12.2476   1
   4   5   4 222.923 11.7483   2
   4   5   4 155.382 13.4655   1
  -5   5   6 303.084 7.96973  -2
   5   5   4 303.084 7.96973   1
   6   5   4 13.8208 4.44788   1
  -6   5   7 114.515 5.63120  -2
   6   5   4 114.515 5.63120   1
   6   5   4 7.23231 1.39101   2
  -7   5   7 147.240 6.25577  -2
   7   5   4 147.240 6.25577   1
  -8   5   7 267.126 9.92074  -2
   8   5   4 267.126 9.92074   1
  -9   5   8 123.930 6.16326  -2
   9   5   4 123.930 6.16326   1
 -10   5   8 71.5427 4.45856  -2
  10   5   4 71.5427 4.45856   1
 -11   5   9 94.1866 7.05806  -2
  11   5   4 94.1866 7.05806   1
 -12   5   9 188.123 7.85541  -2
  12   5   4 188.123 7.85541   1
 -13   5   9 -1.5994 15.5181  -2
  13   5   4 -1.5994 15.5181   1
  13   5   4 0.00418 7.86956   1
 -14   5  10 4.13706 3.46871  -2
  14   5   4 4.13706 3.46871   1
 -15   6   2 -10.239 8.19908  -2
 -15   6   4 -10.239 8.19908   1
 -14   6   2 259.236 11.1788  -2
 -14   6   4 259.236 11.1788   1
 -12   6   1 92.9806 5.19272  -2
 -12   6   4 92.9806 5.19272   1
 -11   6   1 110.892 8.32255  -2
 -11   6   4 110.892 8.32255   1
  10   6   0 605.744 20.0038  -2
 -10   6   4 605.744 20.0038   1
   9   6   0 97.8443 6.10743  -2
  -9   6   4 97.8443 6.10743   1
   8   6   1 201.887 9.12622  -2
  -8   6   4 201.887 9.12622   1
   7   6   1 310.850 9.29571  -2
  -7   6   4 310.850 9.29571   1
  -6   6   4 377.859 16.9394   2
   6   6   1 357.263 38.2029  -2
  -6   6   4 357.263 38.2029   1
  -6   6   4 310.820 12.5884   1
   6   6   2 426.233 40.6010  -2
  -6   6   4 426.233 40.6010   1
   5   6   2 735.137 17.5120  -2
  -5   6   4 735.137 17.5120   1
   4   6   2 1784.54 44.1164  -2
  -4   6   4 1784.54 44.1164   1
   3   6   3 297.380 9.28564  -2
  -3   6   4 297.380 9.28564   1
   2   6   3 66.0602 2.69984  -2
  -2   6   4 66.0602 2.69984   1
   1   6   4 471.745 16.0619  -2
  -1   6   4 471.745 16.0619   1
  -1   6   4 120.807 4.11513   2
  -1   6   4 97.1980 3.55128   1
   0   6   4 352.392 7.57050  -2
   0   6   4 352.392 7.57050   1
   1   6   4 312.809 8.51234   1
   1   6   4 410.428 12.4140   2
  -1   6   4 438.115 27.1068  -2
   1   6   4 438.115 27.1068   1
  -2   6   5 7.22265 1.17474  -2
   2   6   4 7.22265 1.17474   1
  -3   6   5 154.517 4.88287  -2
   3   6   4 154.517 4.88287   1
  -4   6   6 70.6163 3.96385  -2
   4   6   4 70.6163 3.96385   1
   4   6   4 49.0509 3.34324   1
  -5   6   6 184.207 5.71596  -2
   5   6   4 184.207 5.71596   1
   6   6   4 0.72289 1.95218   1
   6   6   4 4.07293 1.68326   2
  -6   6   7 4.62604 3.07289  -2
   6   6   4 4.62604 3.07289   1
  -7   6   7 20.7029 1.75585  -2
   7   6   4 20.7029 1.75585   1
  -8   6   7 186.058 8.51078  -2
   8   6   4 186.058 8.51078   1
  -9   6   8 44.6235 4.29797  -2
   9   6   4 44.6235 4.29797   1
 -10   6   8 44.4049 4.18964  -2
  10   6   4 44.4049 4.18964   1
 -11   6   9 67.3901 8.43328  -2
  11   6   4 67.3901 8.43328   1
 -12   6   9 49.1602 4.85687  -2
  12   6   4 49.1602 4.85687   1
 -13   6   9 22.4862 8.32380  -2
  13   6   4 22.4862 8.32380   1
 -14   6  10 9.55031 5.98978  -2
  14   6   4 9.55031 5.98978   1
 -14   7   2 19.8489 4.52146  -2
 -14   7   4 19.8489 4.52146   1
 -12   7   1 26.2665 4.07000  -2
 -12   7   4 26.2665 4.07000   1
 -11   7   1 84.9257 6.07613  -2
 -11   7   4 84.9257 6.07613   1
  10   7   0 28.5693 3.74375  -2
 -10   7   4 28.5693 3.74375   1
   9   7   0 13.4972 1.75849  -2
  -9   7   4 13.4972 1.75849   1
   8   7   1 180.860 10.1143  -2
  -8   7   4 180.860 10.1143   1
   7   7   1 226.501 7.39964  -2
  -7   7   4 226.501 7.39964   1
   6   7   1 119.201 10.6090  -2
  -6   7   4 119.201 10.6090   1
   6   7   2 364.198 34.4491  -2
  -6   7   4 364.198 34.4491   1
  -6   7   4 66.6058 5.49099   1
  -6   7   4 82.8537 9.77851   2
   5   7   2 93.4648 3.53243  -2
  -5   7   4 93.4648 3.53243   1
   4   7   2 326.557 10.0202  -2
  -4   7   4 326.557 10.0202   1
   3   7   3 539.356 14.8140  -2
  -3   7   4 539.356 14.8140   1
   2   7   3 1521.14 37.3025  -2
  -2   7   4 1521.14 37.3025   1
  -1   7   4 300.878 9.38663   2
   1   7   4 379.527 12.5081  -2
  -1   7   4 379.527 12.5081   1
  -1   7   4 233.192 8.94221   1
   0   7   4 577.631 12.4970  -2
   0   7   4 577.631 12.4970   1
   1   7   4 139.298 5.91960   2
   1   7   4 112.960 4.23485   1
  -1   7   4 394.963 19.9765  -2
   1   7   4 394.963 19.9765   1
  -2   7   5 2695.79 63.8080  -2
   2   7   4 2695.79 63.8080   1
  -3   7   5 1522.00 43.4584  -2
   3   7   4 1522.00 43.4584   1
   3   7   4 1258.30 73.3875   1
  -4   7   6 316.108 9.45196  -2
   4   7   4 316.108 9.45196   1
   4   7   4 161.945 13.7691   1
  -5   7   6 100.102 4.31700  -2
   5   7   4 100.102 4.31700   1
   6   7   4 36.5456 3.52909   1
  -6   7   7 720.012 53.3699  -2
   6   7   4 720.012 53.3699   1
   6   7   4 43.9461 4.31821   2
  -7   7   7 329.429 9.57180  -2
   7   7   4 329.429 9.57180   1
  -8   7   7 145.873 5.74172  -2
   8   7   4 145.873 5.74172   1
  -9   7   8 146.191 6.62715  -2
   9   7   4 146.191 6.62715   1
 -10   7   8 64.0068 4.41448  -2
  10   7   4 64.0068 4.41448   1
 -11   7   9 20.0784 4.78964  -2
  11   7   4 20.0784 4.78964   1
 -12   7   9 146.172 6.76734  -2
  12   7   4 146.172 6.76734   1
 -13   7   9 -21.840 15.9983  -2
  13   7   4 -21.840 15.9983   1
 -14   7  10 36.9275 8.55354  -2
  14   7   4 36.9275 8.55354   1
 -14   8   2 34.2353 5.42988  -2
 -14   8   4 34.2353 5.42988   1
 -12   8   1 54.7039 4.38695  -2
 -12   8   4 54.7039 4.38695   1
 -11   8   1 29.0922 4.34775  -2
 -11   8   4 29.0922 4.34775   1
  10   8   0 32.5041 3.32977  -2
 -10   8   4 32.5041 3.32977   1
   9   8   0 11.0408 2.47212  -2
  -9   8   4 11.0408 2.47212   1
   8   8   1 110.947 5.28919  -2
  -8   8   4 110.947 5.28919   1
  -8   8   4 -3.2619 14.2068   2
   7   8   1 101.332 3.90101  -2
  -7   8   4 101.332 3.90101   1
   6   8   1 187.227 36.5487  -2
  -6   8   4 187.227 36.5487   1
   6   8   2 13.9643 9.39224  -2
  -6   8   4 13.9643 9.39224   1
   5   8   2 106.006 5.07271  -2
  -5   8   4 106.006 5.07271   1
   4   8   2 105.024 4.32197  -2
  -4   8   4 105.024 4.32197   1
   3   8   3 302.512 8.59442  -2
  -3   8   4 302.512 8.59442   1
   2   8   3 578.586 15.5808  -2
  -2   8   4 578.586 15.5808   1
  -1   8   4 23.4034 2.73374   1
   1   8   4 438.988 15.5261  -2
  -1   8   4 438.988 15.5261   1
  -1   8   4 20.1166 2.50237   2
   0   8   4 55.5722 2.04720  -2
   0   8   4 55.5722 2.04720   1
   1   8   4 333.169 12.6740   1
  -1   8   4 347.852 15.8859  -2
   1   8   4 347.852 15.8859   1
   1   8   4 415.611 15.4178   2
  -1   8   5 513.240 43.6893  -2
   1   8   4 513.240 43.6893   1
  -2   8   5 165.814 4.70991  -2
   2   8   4 165.814 4.70991   1
  -3   8   5 179.507 5.55907  -2
   3   8   4 179.507 5.55907   1
   4   8   4 13.9834 2.11668   1
  -4   8   6 66.2400 4.87458  -2
   4   8   4 66.2400 4.87458   1
  -5   8   6 184.227 6.88982  -2
   5   8   4 184.227 6.88982   1
   6   8   4 1.84132 1.49368   1
  -6   8   7 63.6921 22.1039  -2
   6   8   4 63.6921 22.1039   1
  -7   8   7 204.725 6.40926  -2
   7   8   4 204.725 6.40926   1
   8   8   4 56.7383 28.6833   1
  -8   8   7 103.691 6.16867  -2
   8   8   4 103.691 6.16867   1
  -9   8   8 7.56019 3.98112  -2
   9   8   4 7.56019 3.98112   1
 -10   8   8 35.7646 4.11050  -2
  10   8   4 35.7646 4.11050   1
 -11   8   9 130.508 8.58999  -2
  11   8   4 130.508 8.58999   1
 -12   8   9 22.8931 3.86340  -2
  12   8   4 22.8931 3.86340   1
 -13   8   9 22.6552 10.9436  -2
  13   8   4 22.6552 10.9436   1
 -12   9   1 96.8713 5.80588  -2
 -12   9   4 96.8713 5.80588   1
 -11   9   1 85.6748 7.93941  -2
 -11   9   4 85.6748 7.93941   1
  10   9   0 80.6144 4.65004  -2
 -10   9   4 80.6144 4.65004   1
   9   9   0 108.059 5.70508  -2
  -9   9   4 108.059 5.70508   1
   8   9   1 40.5206 5.12671  -2
  -8   9   4 40.5206 5.12671   1
  -8   9   4 3.94744 12.8788   2
   7   9   1 471.074 13.3058  -2
  -7   9   4 471.074 13.3058   1
   6   9   1 381.042 18.0491  -2
  -6   9   4 381.042 18.0491   1
   5   9   2 85.0248 4.25736  -2
  -5   9   4 85.0248 4.25736   1
   4   9   2 238.677 9.16282  -2
  -4   9   4 238.677 9.16282   1
   3   9   3 478.866 17.1778  -2
  -3   9   4 478.866 17.1778   1
   2   9   3 353.829 11.0373  -2
  -2   9   4 353.829 11.0373   1
   1   9   4 19.3292 3.50420  -2
  -1   9   4 19.3292 3.50420   1
  -1   9   4 8.52444 2.58806   2
  -1   9   4 4.45024 2.18039   1
   0   9   4 206.160 5.98874  -2
   0   9   4 206.160 5.98874   1
   1   9   4 22.8407 3.25737   1
   1   9   4 20.5826 3.22822   2
  -1   9   4 21.2187 3.99496  -2
   1   9   4 21.2187 3.99496   1
  -2   9   5 120.053 5.06712  -2
   2   9   4 120.053 5.06712   1
  -3   9   5 62.6295 3.40364  -2
   3   9   4 62.6295 3.40364   1
  -4   9   6 119.611 5.82001  -2
   4   9   4 119.611 5.82001   1
   4   9   4 116.888 7.20321   1
  -5   9   6 61.8415 3.57714  -2
   5   9   4 61.8415 3.57714   1
   6   9   4 59.9706 5.16173   1
  -7   9   7 161.113 4.98081  -2
   7   9   4 161.113 4.98081   1
  -8   9   7 32.5922 3.57661  -2
   8   9   4 32.5922 3.57661   1
   8   9   4 20.1001 14.7051   2
  -9   9   8 81.8311 5.33645  -2
   9   9   4 81.8311 5.33645   1
 -10   9   8 48.3110 5.85527  -2
  10   9   4 48.3110 5.85527   1
 -11   9   9 20.5363 5.99340  -2
  11   9   4 20.5363 5.99340   1
 -12   9   9 17.4551 3.59661  -2
  12   9   4 17.4551 3.59661   1
 -12  10   1 10.7147 3.22198  -2
 -12  10   4 10.7147 3.22198   1
 -11  10   1 71.0942 7.21985  -2
 -11  10   4 71.0942 7.21985   1
  10  10   0 19.0118 3.55566  -2
 -10  10   4 19.0118 3.55566   1
   9  10   0 181.865 7.67214  -2
  -9  10   4 181.865 7.67214   1
   8  10   1 98.1648 7.53493  -2
  -8  10   4 98.1648 7.53493   1
   7  10   1 51.5097 3.27383  -2
  -7  10   4 51.5097 3.27383   1
   6  10   1 4.03831 8.21532  -2
  -6  10   4 4.03831 8.21532   1
   5  10   2 382.433 13.1600  -2
  -5  10   4 382.433 13.1600   1
   4  10   2 133.805 6.78299  -2
  -4  10   4 133.805 6.78299   1
   3  10   3 141.824 5.49882  -2
  -3  10   4 141.824 5.49882   1
   2  10   3 40.5927 3.23585  -2
  -2  10   4 40.5927 3.23585   1
   1  10   4 271.658 26.3217  -2
   1  10   3 271.658 26.3217  -2
  -1  10   4 271.658 26.3217   1
   1  10   4 244.067 11.5284  -2
  -1  10   4 244.067 11.5284   1
  -1  10   4 87.2629 10.9090   2
  -1  10   4 85.2790 12.1186   1
   0  10   4 392.694 10.5052  -2
   0  10   4 392.694 10.5052   1
  -1  10   4 224.590 12.1251  -2
   1  10   4 224.590 12.1251   1
   1  10   4 207.747 21.5444   2
   1  10   4 156.701 17.6437   1
  -2  10   5 27.8724 3.87967  -2
   2  10   4 27.8724 3.87967   1
  -3  10   5 167.415 6.70456  -2
   3  10   4 167.415 6.70456   1
  -4  10   6 419.038 14.7483  -2
   4  10   4 419.038 14.7483   1
   4  10   4 147.865 12.7832   1
  -5  10   6 345.542 10.5959  -2
   5  10   4 345.542 10.5959   1
   6  10   4 33.9979 9.13352   1
  -6  10   7 125.033 26.8473  -2
   6  10   4 125.033 26.8473   1
  -7  10   7 206.612 7.02840  -2
   7  10   4 206.612 7.02840   1
  -8  10   7 49.9732 5.95365  -2
   8  10   4 49.9732 5.95365   1
  -9  10   8 85.6898 6.33334  -2
   9  10   4 85.6898 6.33334   1
 -10  10   8 82.6340 5.35400  -2
  10  10   4 82.6340 5.35400   1
 -11  10   9 28.0794 7.98924  -2
  11  10   4 28.0794 7.98924   1
 -12  10   9 8.91004 3.79828  -2
  12  10   4 8.91004 3.79828   1
 -12  11   1 8.26967 3.98915  -2
 -12  11   4 8.26967 3.98915   1
 -11  11   1 5.89511 6.25785  -2
 -11  11   4 5.89511 6.25785   1
  10  11   0 4.59634 4.37769  -2
 -10  11   4 4.59634 4.37769   1
   9  11   0 36.5790 4.17582  -2
  -9  11   4 36.5790 4.17582   1
   8  11   1 2.14954 6.84150  -2
  -8  11   4 2.14954 6.84150   1
   7  11   1 72.5185 5.23662  -2
  -7  11   4 72.5185 5.23662   1
   5  11   2 16.5442 3.36970  -2
  -5  11   4 16.5442 3.36970   1
   4  11   2 91.5792 7.05909  -2
  -4  11   4 91.5792 7.05909   1
   3  11   3 147.946 7.22355  -2
  -3  11   4 147.946 7.22355   1
   2  11   3 143.989 6.19224  -2
  -2  11   4 143.989 6.19224   1
   1  11   4 51.6866 6.31675  -2
  -1  11   4 51.6866 6.31675   1
  -1  11   4 4.57797 8.64864   1
  -1  11   4 -6.2265 7.89473   2
   0  11   4 93.7965 3.35234  -2
   0  11   4 93.7965 3.35234   1
   1  11   4 51.0260 13.7102   2
  -1  11   4 41.6673 7.08103  -2
   1  11   4 41.6673 7.08103   1
   1  11   4 33.2165 12.1211   1
  -2  11   5 14.5733 3.55741  -2
   2  11   4 14.5733 3.55741   1
  -3  11   5 28.2652 3.52770  -2
   3  11   4 28.2652 3.52770   1
  -4  11   6 76.9988 5.60794  -2
   4  11   4 76.9988 5.60794   1
   4  11   4 62.3164 5.97135   1
  -5  11   6 111.400 5.44724  -2
   5  11   4 111.400 5.44724   1
  -6  11   7 132.024 57.8718  -2
   6  11   4 132.024 57.8718   1
   6  11   4 33.6945 9.67674   1
  -7  11   7 58.3101 3.63436  -2
   7  11   4 58.3101 3.63436   1
  -8  11   7 116.791 9.44310  -2
   8  11   4 116.791 9.44310   1
  -9  11   8 136.760 8.75766  -2
   9  11   4 136.760 8.75766   1
 -10  11   8 128.375 7.66066  -2
  10  11   4 128.375 7.66066   1
 -11  11   9 67.6802 7.61359  -2
  11  11   4 67.6802 7.61359   1
 -12  11   9 13.6335 4.52448  -2
  12  11   4 13.6335 4.52448   1
 -11  12   1 8.51385 15.1459  -2
 -11  12   4 8.51385 15.1459   1
  10  12   0 78.5297 6.53566  -2
 -10  12   4 78.5297 6.53566   1
   9  12   0 73.2754 4.95028  -2
  -9  12   4 73.2754 4.95028   1
   8  12   1 23.9810 8.09833  -2
  -8  12   4 23.9810 8.09833   1
   7  12   1 61.1437 3.82584  -2
  -7  12   4 61.1437 3.82584   1
  -6  12   4 21.7696 8.29179   2
   5  12   2 102.347 4.68823  -2
  -5  12   4 102.347 4.68823   1
   4  12   2 422.213 14.3553  -2
  -4  12   4 422.213 14.3553   1
   3  12   3 204.343 8.98394  -2
  -3  12   4 204.343 8.98394   1
   2  12   3 34.7739 3.35079  -2
  -2  12   4 34.7739 3.35079   1
  -1  12   4 -1.0106 15.3831   1
   1  12   4 39.3777 6.13404  -2
  -1  12   4 39.3777 6.13404   1
   0  12   4 959.560 22.8671  -2
   0  12   4 959.560 22.8671   1
  -1  12   4 52.9082 4.93543  -2
   1  12   4 52.9082 4.93543   1
   1  12   4 9.75784 17.1000   2
  -2  12   5 28.3017 3.41505  -2
   2  12   4 28.3017 3.41505   1
  -3  12   5 22.2958 4.03485  -2
   3  12   4 22.2958 4.03485   1
  -4  12   6 395.262 13.1555  -2
   4  12   4 395.262 13.1555   1
  -5  12   6 66.2439 4.47736  -2
   5  12   4 66.2439 4.47736   1
  -6  12   7 41.7081 14.3645  -2
   6  12   4 41.7081 14.3645   1
  -7  12   7 39.2059 4.80033  -2
   7  12   4 39.2059 4.80033   1
  -8  12   7 3.48743 6.40738  -2
   8  12   4 3.48743 6.40738   1
  -9  12   8 10.1721 4.48201  -2
   9  12   4 10.1721 4.48201   1
 -10  12   8 10.0192 4.24235  -2
  10  12   4 10.0192 4.24235   1
 -11  12   9 11.5101 8.57689  -2
  11  12   4 11.5101 8.57689   1
  10  13   0 12.5125 5.55046  -2
 -10  13   4 12.5125 5.55046   1
   9  13   0 23.4905 3.97635  -2
  -9  13   4 23.4905 3.97635   1
   8  13   1 154.582 13.5112  -2
  -8  13   4 154.582 13.5112   1
   7  13   1 97.0920 4.47595  -2
  -7  13   4 97.0920 4.47595   1
  -6  13   4 75.1423 13.6780   2
   5  13   2 19.6335 2.97134  -2
  -5  13   4 19.6335 2.97134   1
   4  13   2 54.5516 4.16745  -2
  -4  13   4 54.5516 4.16745   1
   3  13   3 87.2593 5.19477  -2
  -3  13   4 87.2593 5.19477   1
   2  13   3 242.944 8.93007  -2
  -2  13   4 242.944 8.93007   1
   1  13   3 182.715 25.0141  -2
   1  13   4 182.715 25.0141  -2
  -1  13   4 182.715 25.0141   1
   1  13   4 48.7836 8.80853  -2
  -1  13   4 48.7836 8.80853   1
   1  13   4 181.716 21.9100  -2
   1  13   3 181.716 21.9100  -2
  -1  13   4 181.716 21.9100   1
   0  13   4 10.4542 1.70307  -2
   0  13   4 10.4542 1.70307   1
  -1  13   4 78.9361 7.99204  -2
   1  13   4 78.9361 7.99204   1
  -2  13   5 178.808 7.32925  -2
   2  13   4 178.808 7.32925   1
  -3  13   5 294.772 10.3989  -2
   3  13   4 294.772 10.3989   1
  -4  13   6 123.336 7.02085  -2
   4  13   4 123.336 7.02085   1
  -5  13   6 8.29136 3.37012  -2
   5  13   4 8.29136 3.37012   1
  -6  13   7 66.3175 13.8674  -2
   6  13   4 66.3175 13.8674   1
  -6  13   6 163.622 21.8506  -2
   6  13   4 163.622 21.8506   1
  -7  13   7 171.201 7.61826  -2
   7  13   4 171.201 7.61826   1
  -8  13   7 19.6997 5.92149  -2
   8  13   4 19.6997 5.92149   1
  -9  13   8 2.61539 3.92118  -2
   9  13   4 2.61539 3.92118   1
 -10  13   8 118.484 7.17505  -2
  10  13   4 118.484 7.17505   1
  10  14   0 22.5552 8.81837  -2
 -10  14   4 22.5552 8.81837   1
   9  14   0 26.8962 5.24592  -2
  -9  14   4 26.8962 5.24592   1
   8  14   1 12.0789 8.02612  -2
  -8  14   4 12.0789 8.02612   1
   7  14   1 47.3365 3.30937  -2
  -7  14   4 47.3365 3.30937   1
  -6  14   4 18.4898 7.98376   2
   5  14   2 34.1691 3.40497  -2
  -5  14   4 34.1691 3.40497   1
   4  14   2 3.01280 3.41617  -2
  -4  14   4 3.01280 3.41617   1
   3  14   3 3.93819 3.72264  -2
  -3  14   4 3.93819 3.72264   1
   2  14   3 7.47389 2.97399  -2
  -2  14   4 7.47389 2.97399   1
   1  14   4 97.0363 16.1404  -2
  -1  14   4 97.0363 16.1404   1
   1  14   3 93.7145 17.2595  -2
  -1  14   4 93.7145 17.2595   1
   0  14   4 9.71163 1.81440  -2
   0  14   4 9.71163 1.81440   1
  -1  14   4 121.196 10.9946  -2
   1  14   4 121.196 10.9946   1
  -2  14   5 1.44828 2.91723  -2
   2  14   4 1.44828 2.91723   1
  -3  14   5 3.57642 5.39314  -2
   3  14   4 3.57642 5.39314   1
  -4  14   6 22.3857 5.84479  -2
   4  14   4 22.3857 5.84479   1
  -5  14   6 49.4213 4.61113  -2
   5  14   4 49.4213 4.61113   1
  -6  14   7 4.45566 13.8305  -2
   6  14   4 4.45566 13.8305   1
  -7  14   7 83.0734 4.18269  -2
   7  14   4 83.0734 4.18269   1
  -8  14   7 78.3132 7.27743  -2
   8  14   4 78.3132 7.27743   1
  -9  14   8 6.83322 5.09376  -2
   9  14   4 6.83322 5.09376   1
   8  15   1 24.5577 13.5082  -2
  -8  15   4 24.5577 13.5082   1
   7  15   1 47.4874 4.24271  -2
  -7  15   4 47.4874 4.24271   1
  -6  15   4 52.7251 11.6610   2
   5  15   2 23.0564 3.96045  -2
  -5  15   4 23.0564 3.96045   1
   4  15   2 40.9603 6.03839  -2
  -4  15   4 40.9603 6.03839   1
   3  15   3 105.935 6.35852  -2
  -3  15   4 105.935 6.35852   1
   2  15   3 135.183 6.56647  -2
  -2  15   4 135.183 6.56647   1
   1  15   4 22.8673 12.8389  -2
  -1  15   4 22.8673 12.8389   1
   0  15   4 40.1910 2.68953  -2
   0  15   4 40.1910 2.68953   1
  -1  15   4 16.4269 7.05648  -2
   1  15   4 16.4269 7.05648   1
  -2  15   5 89.7714 5.63530  -2
   2  15   4 89.7714 5.63530   1
  -3  15   5 150.898 8.76179  -2
   3  15   4 150.898 8.76179   1
  -4  15   6 22.5738 7.18881  -2
   4  15   4 22.5738 7.18881   1
  -5  15   6 5.55455 3.58588  -2
   5  15   4 5.55455 3.58588   1
  -6  15   6 18.3133 10.2635  -2
   6  15   4 18.3133 10.2635   1
   6  15   4 6.41245 7.87937   1
  -7  15   7 68.7916 4.28492  -2
   7  15   4 68.7916 4.28492   1
  -8  15   7 0.27856 7.46896  -2
   8  15   4 0.27856 7.46896   1
   7  16   1 31.5227 4.21891  -2
  -7  16   4 31.5227 4.21891   1
   5  16   2 118.718 5.73190  -2
  -5  16   4 118.718 5.73190   1
   4  16   2 60.3979 9.97736  -2
  -4  16   4 60.3979 9.97736   1
   3  16   3 12.3635 5.80525  -2
  -3  16   4 12.3635 5.80525   1
   2  16   3 19.9448 3.51478  -2
  -2  16   4 19.9448 3.51478   1
   1  16   4 82.4891 18.1450  -2
  -1  16   4 82.4891 18.1450   1
   0  16   4 39.3718 3.84006  -2
   0  16   4 39.3718 3.84006   1
  -1  16   4 78.9488 11.0482  -2
   1  16   4 78.9488 11.0482   1
  -2  16   5 25.4008 4.67378  -2
   2  16   4 25.4008 4.67378   1
  -3  16   5 102.420 6.49143  -2
   3  16   4 102.420 6.49143   1
  -4  16   6 14.1783 6.15046  -2
   4  16   4 14.1783 6.15046   1
  -5  16   6 91.1538 5.79944  -2
   5  16   4 91.1538 5.79944   1
  -6  16   6 3.59353 10.1213  -2
   6  16   4 3.59353 10.1213   1
   5  17   2 22.2951 4.07190  -2
  -5  17   4 22.2951 4.07190   1
   4  17   2 9.53786 10.9471  -2
  -4  17   4 9.53786 10.9471   1
   3  17   3 43.2906 6.33831  -2
  -3  17   4 43.2906 6.33831   1
   2  17   3 50.4493 4.11986  -2
  -2  17   4 50.4493 4.11986   1
   1  17   4 63.1239 15.3148  -2
  -1  17   4 63.1239 15.3148   1
   0  17   4 -0.0461 2.21421  -2
   0  17   4 -0.0461 2.21421   1
  -1  17   4 51.5026 14.3444  -2
   1  17   4 51.5026 14.3444   1
  -2  17   5 21.1905 3.64348  -2
   2  17   4 21.1905 3.64348   1
  -3  17   5 -4.2526 6.24887  -2
   3  17   4 -4.2526 6.24887   1
  -4  17   6 15.2663 8.89004  -2
   4  17   4 15.2663 8.89004   1
 -15   0   1 72.6064 9.81052  -2
 -15   0   5 72.6064 9.81052   1
 -14   0   1 9.05644 7.96573  -2
 -14   0   5 9.05644 7.96573   1
  12   0   0 82.8538 5.80683  -2
 -12   0   5 82.8538 5.80683   1
  11   0   0 5.83992 4.58095  -2
 -11   0   5 5.83992 4.58095   1
 -11   0   5 4.09098 0.99378   1
  10   0   1 10.8287 3.44245  -2
 -10   0   5 10.8287 3.44245   1
   9   0   1 534.210 24.5006  -2
  -9   0   5 534.210 24.5006   1
  -8   0   5 1.49881 2.63291   1
  -8   0   5 10.5647 17.4059   2
   8   0   2 521.455 22.4107  -2
  -8   0   5 521.455 22.4107   1
   7   0   2 48.0109 2.89961  -2
  -7   0   5 48.0109 2.89961   1
  -6   0   5 0.47358 1.27163   1
  -6   0   5 4.21750 1.36655   2
   6   0   2 33.4404 6.90762  -2
  -6   0   5 33.4404 6.90762   1
   5   0   3 452.300 16.5486  -2
  -5   0   5 452.300 16.5486   1
  -4   0   5 3.14692 1.24457   1
   4   0   3 1.73389 1.80621  -2
  -4   0   5 1.73389 1.80621   1
  -4   0   5 -2.8733 2.60572   2
  -3   0   5 414.529 21.3735   1
   3   0   4 385.282 13.4342  -2
  -3   0   5 385.282 13.4342   1
  -3   0   5 501.967 36.4308   2
   2   0   4 288.343 7.93409  -2
  -2   0   5 288.343 7.93409   1
   1   0   5 347.947 11.2061  -2
  -1   0   5 347.947 11.2061   1
  -1   0   5 359.761 16.1585   1
  -1   0   5 424.036 16.3551   2
   0   0   5 4.74377 0.85202  -2
   0   0   5 4.74377 0.85202   1
   1   0   5 4.27930 1.01752   1
   1   0   5 0.95831 1.21203   2
  -1   0   5 410.540 14.1559  -2
   1   0   5 410.540 14.1559   1
  -2   0   6 33.8576 1.96470  -2
   2   0   5 33.8576 1.96470   1
  -3   0   6 676.274 20.7139  -2
   3   0   5 676.274 20.7139   1
   3   0   5 709.779 56.0229   2
   3   0   5 632.241 45.8277   1
   4   0   5 3.02642 2.50599   1
  -4   0   7 3.62443 2.29870  -2
   4   0   5 3.62443 2.29870   1
   4   0   5 0.53388 2.51794   2
  -5   0   7 262.046 9.50174  -2
   5   0   5 262.046 9.50174   1
   6   0   5 2.48220 1.03594   2
  -6   0   8 134.788 10.0958  -2
   6   0   5 134.788 10.0958   1
   6   0   5 20.4808 10.5302   1
  -7   0   8 10.8216 1.97879  -2
   7   0   5 10.8216 1.97879   1
  -8   0   8 33.8476 4.32202  -2
   8   0   5 33.8476 4.32202   1
  -9   0   9 331.331 14.4551  -2
   9   0   5 331.331 14.4551   1
 -10   0   9 18.2344 5.57079  -2
  10   0   5 18.2344 5.57079   1
 -11   0  10 29.5950 7.07778  -2
  11   0   5 29.5950 7.07778   1
 -12   0  10 47.5353 7.80449  -2
  12   0   5 47.5353 7.80449   1
 -14   0  11 3.45130 5.79026  -2
  14   0   5 3.45130 5.79026   1
 -15   0  11 46.3504 9.63108  -2
  15   0   5 46.3504 9.63108   1
 -15   1   1 42.9368 6.58670  -2
 -15   1   5 42.9368 6.58670   1
 -14   1   1 6.81768 4.35432  -2
 -14   1   5 6.81768 4.35432   1
  12   1   0 51.7194 2.86449  -2
 -12   1   5 51.7194 2.86449   1
  11   1   0 93.6540 5.42140  -2
 -11   1   5 93.6540 5.42140   1
  10   1   1 104.984 3.63484  -2
 -10   1   5 104.984 3.63484   1
   9   1   1 515.302 20.3169  -2
  -9   1   5 515.302 20.3169   1
   8   1   2 302.786 10.3020  -2
  -8   1   5 302.786 10.3020   1
  -8   1   5 172.890 10.9534   1
  -8   1   5 129.588 25.4713   2
   7   1   2 349.547 8.23092  -2
  -7   1   5 349.547 8.23092   1
   6   1   2 346.479 12.1518  -2
  -6   1   5 346.479 12.1518   1
  -6   1   5 218.776 6.91556   1
  -6   1   5 270.953 9.74137   2
   5   1   3 1190.41 29.0916  -2
  -5   1   5 1190.41 29.0916   1
   4   1   3 281.563 9.25929  -2
  -4   1   5 281.563 9.25929   1
  -4   1   5 114.227 6.53432   2
  -4   1   5 99.1870 4.28065   1
   3   1   4 202.961 5.77939  -2
  -3   1   5 202.961 5.77939   1
  -3   1   5 8.50133 1.96053   2
  -3   1   5 5.84277 1.18292   1
   2   1   4 958.213 17.9053  -2
  -2   1   5 958.213 17.9053   1
  -1   1   5 644.765 17.4470   2
   1   1   5 1912.88 63.6196  -2
  -1   1   5 1912.88 63.6196   1
  -1   1   5 540.559 12.3785   1
   0   1   5 3114.15 53.4840  -2
   0   1   5 3114.15 53.4840   1
   1   1   5 1211.91 31.9153   1
   1   1   5 1457.10 31.0070   2
  -1   1   5 1790.90 43.7813  -2
   1   1   5 1790.90 43.7813   1
  -2   1   6 1614.31 30.4136  -2
   2   1   5 1614.31 30.4136   1
  -3   1   6 2024.63 48.6192  -2
   3   1   5 2024.63 48.6192   1
   3   1   5 1693.07 99.3941   1
   3   1   5 2009.28 85.1251   2
  -4   1   7 154.384 5.09940  -2
   4   1   5 154.384 5.09940   1
   4   1   5 24.4606 2.19620   2
   4   1   5 15.9779 5.69483   1
  -5   1   7 582.613 14.7063  -2
   5   1   5 582.613 14.7063   1
   6   1   5 337.509 11.9592   2
   6   1   5 276.552 19.0089   1
  -6   1   8 520.815 17.5569  -2
   6   1   5 520.815 17.5569   1
  -7   1   8 1410.45 31.4778  -2
   7   1   5 1410.45 31.4778   1
  -8   1   8 447.837 17.1815  -2
   8   1   5 447.837 17.1815   1
   8   1   5 407.678 23.0737   1
  -9   1   9 14.3588 2.70339  -2
   9   1   5 14.3588 2.70339   1
 -10   1   9 78.3727 3.81570  -2
  10   1   5 78.3727 3.81570   1
 -11   1  10 388.100 14.9509  -2
  11   1   5 388.100 14.9509   1
 -12   1  10 83.2599 6.18934  -2
  12   1   5 83.2599 6.18934   1
 -14   1  11 2.13628 4.39165  -2
  14   1   5 2.13628 4.39165   1
 -15   1  11 4.43350 8.53867  -2
  15   1   5 4.43350 8.53867   1
 -15   2   1 3.16042 5.64941  -2
 -15   2   5 3.16042 5.64941   1
 -14   2   1 66.3813 6.07834  -2
 -14   2   5 66.3813 6.07834   1
  12   2   0 209.670 7.91886  -2
 -12   2   5 209.670 7.91886   1
  11   2   0 42.8711 3.78921  -2
 -11   2   5 42.8711 3.78921   1
  10   2   1 101.576 4.48022  -2
 -10   2   5 101.576 4.48022   1
   9   2   1 117.028 4.55931  -2
  -9   2   5 117.028 4.55931   1
   8   2   2 112.235 4.09449  -2
  -8   2   5 112.235 4.09449   1
  -8   2   5 101.222 6.96655   1
   7   2   2 322.132 7.63733  -2
  -7   2   5 322.132 7.63733   1
  -6   2   5 219.434 7.26041   1
  -6   2   5 253.986 9.26061   2
   6   2   2 341.999 17.2292  -2
  -6   2   5 341.999 17.2292   1
   5   2   3 1068.94 30.0043  -2
  -5   2   5 1068.94 30.0043   1
  -4   2   5 4.43718 1.68088   1
  -4   2   5 9.70542 2.19685   2
   4   2   3 17.5299 2.05348  -2
  -4   2   5 17.5299 2.05348   1
  -3   2   5 375.273 14.3856   1
   3   2   4 813.994 19.1930  -2
  -3   2   5 813.994 19.1930   1
  -3   2   5 384.148 15.1653   2
   2   2   4 1181.03 22.7566  -2
  -2   2   5 1181.03 22.7566   1
  -1   2   5 793.060 18.7527   2
  -1   2   5 652.328 14.3309   1
   1   2   5 1512.94 72.3869  -2
  -1   2   5 1512.94 72.3869   1
   0   2   5 430.397 8.94421  -2
   0   2   5 430.397 8.94421   1
   1   2   5 856.813 18.0200   2
   1   2   5 713.446 16.7852   1
  -1   2   5 1514.52 53.0422  -2
   1   2   5 1514.52 53.0422   1
  -2   2   6 805.546 14.7155  -2
   2   2   5 805.546 14.7155   1
  -3   2   6 636.265 15.3054  -2
   3   2   5 636.265 15.3054   1
   3   2   5 5.31726 2.06870   1
   3   2   5 7.51989 2.36389   2
  -4   2   7 1028.74 25.0514  -2
   4   2   5 1028.74 25.0514   1
   4   2   5 414.512 20.2846   2
   4   2   5 330.211 28.4478   1
  -5   2   7 1330.34 30.9497  -2
   5   2   5 1330.34 30.9497   1
   6   2   5 351.014 12.6984   2
   6   2   5 304.307 39.9630   1
  -6   2   7 682.003 58.6477  -2
   6   2   5 682.003 58.6477   1
  -6   2   8 513.733 19.9130  -2
   6   2   5 513.733 19.9130   1
  -7   2   8 197.479 5.44303  -2
   7   2   5 197.479 5.44303   1
  -8   2   8 241.020 14.3108  -2
   8   2   5 241.020 14.3108   1
   8   2   5 10.4802 3.66465   2
  -9   2   9 536.927 19.9722  -2
   9   2   5 536.927 19.9722   1
 -10   2   9 367.548 13.4155  -2
  10   2   5 367.548 13.4155   1
 -11   2  10 13.6309 3.27445  -2
  11   2   5 13.6309 3.27445   1
 -12   2  10 33.9426 4.90074  -2
  12   2   5 33.9426 4.90074   1
 -13   2  11 147.622 22.4605  -2
  13   2   5 147.622 22.4605   1
 -14   2  11 72.8775 5.56670  -2
  14   2   5 72.8775 5.56670   1
 -15   2  11 33.7402 7.80641  -2
  15   2   5 33.7402 7.80641   1
 -15   3   1 -4.0664 7.49557  -2
 -15   3   5 -4.0664 7.49557   1
 -14   3   1 32.3813 5.24341  -2
 -14   3   5 32.3813 5.24341   1
  12   3   0 301.905 10.5123  -2
 -12   3   5 301.905 10.5123   1
  11   3   0 312.473 11.5593  -2
 -11   3   5 312.473 11.5593   1
  10   3   1 269.752 7.95813  -2
 -10   3   5 269.752 7.95813   1
   9   3   1 59.0204 3.08575  -2
  -9   3   5 59.0204 3.08575   1
   8   3   2 359.968 13.7785  -2
  -8   3   5 359.968 13.7785   1
  -8   3   5 25.1227 2.23174   1
   7   3   2 504.227 11.9903  -2
  -7   3   5 504.227 11.9903   1
  -6   3   5 47.3271 2.20847   1
   6   3   2 173.405 9.50299  -2
  -6   3   5 173.405 9.50299   1
  -6   3   5 49.2381 3.87504   2
   5   3   3 39.9824 1.70843  -2
  -5   3   5 39.9824 1.70843   1
   4   3   3 729.490 20.5390  -2
  -4   3   5 729.490 20.5390   1
  -4   3   5 194.647 7.81111   1
  -4   3   5 238.160 11.7551   2
   3   3   4 244.171 7.20141  -2
  -3   3   5 244.171 7.20141   1
  -3   3   5 45.6357 3.14851   1
  -3   3   5 57.5939 3.59011   2
   2   3   4 257.250 5.78722  -2
  -2   3   5 257.250 5.78722   1
  -1   3   5 54.2787 2.06887   2
  -1   3   5 47.6527 1.53455   1
   1   3   5 85.2839 4.88944  -2
  -1   3   5 85.2839 4.88944   1
   0   3   5 1185.95 21.3346  -2
   0   3   5 1185.95 21.3346   1
   1   3   5 34.2513 1.21232   2
   1   3   5 28.8364 1.28471   1
  -1   3   5 82.7640 3.67431  -2
   1   3   5 82.7640 3.67431   1
  -2   3   6 133.813 4.53342  -2
   2   3   5 133.813 4.53342   1
  -3   3   6 159.739 4.61787  -2
   3   3   5 159.739 4.61787   1
   3   3   5 7.47011 2.67616   2
   4   3   5 3.03632 1.69822   2
  -4   3   7 143.604 4.22293  -2
   4   3   5 143.604 4.22293   1
   4   3   5 9.89871 11.2439   1
  -5   3   7 26.9523 1.72500  -2
   5   3   5 26.9523 1.72500   1
   6   3   5 8.54364 3.93391   1
   6   3   5 3.18216 1.64168   2
  -6   3   8 67.6964 4.22137  -2
   6   3   5 67.6964 4.22137   1
  -6   3   7 10.9334 10.8896  -2
   6   3   5 10.9334 10.8896   1
  -7   3   8 78.2122 2.66288  -2
   7   3   5 78.2122 2.66288   1
  -8   3   8 202.217 10.9054  -2
   8   3   5 202.217 10.9054   1
   8   3   5 47.0188 7.21518   2
  -9   3   9 21.6617 3.42106  -2
   9   3   5 21.6617 3.42106   1
 -10   3   9 11.0852 3.04865  -2
  10   3   5 11.0852 3.04865   1
 -11   3  10 12.5056 3.73463  -2
  11   3   5 12.5056 3.73463   1
 -12   3  10 50.5141 5.14127  -2
  12   3   5 50.5141 5.14127   1
 -13   3  10 15.9198 15.3834  -2
  13   3   5 15.9198 15.3834   1
  13   3   5 6.10396 7.93023   1
 -14   3  11 5.44792 3.63491  -2
  14   3   5 5.44792 3.63491   1
 -15   3  11 0.70016 6.57740  -2
  15   3   5 0.70016 6.57740   1
 -15   4   1 3.55350 6.68088  -2
 -15   4   5 3.55350 6.68088   1
 -14   4   1 1.00119 3.28092  -2
 -14   4   5 1.00119 3.28092   1
  12   4   0 43.4856 4.06620  -2
 -12   4   5 43.4856 4.06620   1
  11   4   0 75.9089 3.75567  -2
 -11   4   5 75.9089 3.75567   1
  10   4   1 65.3718 3.34585  -2
 -10   4   5 65.3718 3.34585   1
   9   4   1 356.532 11.7883  -2
  -9   4   5 356.532 11.7883   1
   8   4   2 344.097 12.0869  -2
  -8   4   5 344.097 12.0869   1
  -8   4   5 271.407 16.8322   1
   7   4   2 241.813 6.30369  -2
  -7   4   5 241.813 6.30369   1
  -6   4   5 987.698 31.9610   2
  -6   4   5 851.224 24.6063   1
   6   4   2 899.652 46.1739  -2
  -6   4   5 899.652 46.1739   1
   5   4   3 1065.43 24.6217  -2
  -5   4   5 1065.43 24.6217   1
  -4   4   5 758.181 31.8729   1
   4   4   3 1046.78 26.2866  -2
  -4   4   5 1046.78 26.2866   1
  -4   4   5 1001.43 69.9891   2
  -3   4   5 274.271 12.1779   1
   3   4   4 434.179 12.2249  -2
  -3   4   5 434.179 12.2249   1
  -3   4   5 319.907 26.6941   2
   2   4   4 1928.08 44.7561  -2
  -2   4   5 1928.08 44.7561   1
  -1   4   5 10.5428 1.25558   2
   1   4   5 301.553 18.1353  -2
  -1   4   5 301.553 18.1353   1
  -1   4   5 5.27993 1.05798   1
   0   4   5 329.563 7.80321  -2
   0   4   5 329.563 7.80321   1
   1   4   5 244.826 7.53755   1
   1   4   5 305.519 7.64564   2
  -1   4   5 262.033 11.6776  -2
   1   4   5 262.033 11.6776   1
  -2   4   6 942.388 23.6179  -2
   2   4   5 942.388 23.6179   1
  -3   4   6 394.371 10.8374  -2
   3   4   5 394.371 10.8374   1
   3   4   5 282.904 25.2962   2
  -4   4   7 100.877 3.44278  -2
   4   4   5 100.877 3.44278   1
   4   4   5 9.58682 2.72990   2
  -5   4   7 2008.20 46.7674  -2
   5   4   5 2008.20 46.7674   1
   6   4   5 38.0172 3.25064   2
  -6   4   8 42.9034 3.45163  -2
   6   4   5 42.9034 3.45163   1
   6   4   5 38.5944 3.83696   1
  -7   4   8 33.0119 1.92007  -2
   7   4   5 33.0119 1.92007   1
  -8   4   8 144.693 7.85238  -2
   8   4   5 144.693 7.85238   1
  -9   4   9 811.401 24.1889  -2
   9   4   5 811.401 24.1889   1
 -10   4   9 196.105 7.59004  -2
  10   4   5 196.105 7.59004   1
 -11   4  10 18.9996 4.13063  -2
  11   4   5 18.9996 4.13063   1
 -12   4  10 64.5453 4.35770  -2
  12   4   5 64.5453 4.35770   1
 -13   4  10 45.6690 17.5602  -2
  13   4   5 45.6690 17.5602   1
  13   4   5 23.7805 9.48723   1
 -14   4  11 55.9427 5.22372  -2
  14   4   5 55.9427 5.22372   1
 -15   5   1 17.9991 8.99700  -2
 -15   5   5 17.9991 8.99700   1
 -14   5   1 45.8477 4.73654  -2
 -14   5   5 45.8477 4.73654   1
  12   5   0 48.2456 4.83418  -2
 -12   5   5 48.2456 4.83418   1
  11   5   0 43.0218 3.23899  -2
 -11   5   5 43.0218 3.23899   1
  10   5   1 9.17377 1.92239  -2
 -10   5   5 9.17377 1.92239   1
   9   5   1 519.225 14.1906  -2
  -9   5   5 519.225 14.1906   1
   8   5   2 43.6185 2.58898  -2
  -8   5   5 43.6185 2.58898   1
   7   5   2 12.2849 1.64227  -2
  -7   5   5 12.2849 1.64227   1
  -6   5   5 184.710 8.99863   2
  -6   5   5 158.370 6.09068   1
   6   5   2 212.817 12.0601  -2
  -6   5   5 212.817 12.0601   1
   6   5   3 243.088 21.2364  -2
  -6   5   5 243.088 21.2364   1
   5   5   3 1219.31 30.8274  -2
  -5   5   5 1219.31 30.8274   1
   4   5   3 29.9321 2.86197  -2
  -4   5   5 29.9321 2.86197   1
  -4   5   5 30.4461 3.10826   1
  -4   5   5 83.5449 27.0458   2
   3   5   4 110.654 3.54104  -2
  -3   5   5 110.654 3.54104   1
  -3   5   5 25.4780 2.49993   2
   2   5   4 194.467 4.95455  -2
  -2   5   5 194.467 4.95455   1
  -1   5   5 218.796 6.41840   1
  -1   5   5 262.113 8.71704   2
   1   5   5 235.119 10.3624  -2
  -1   5   5 235.119 10.3624   1
   0   5   5 208.764 5.15281  -2
   0   5   5 208.764 5.15281   1
   1   5   5 4.88321 0.87108   1
  -1   5   5 258.371 9.58527  -2
   1   5   5 258.371 9.58527   1
   1   5   5 8.58253 1.05584   2
  -2   5   6 403.940 10.1157  -2
   2   5   5 403.940 10.1157   1
  -3   5   6 292.952 8.55345  -2
   3   5   5 292.952 8.55345   1
  -4   5   7 64.2849 3.77588  -2
   4   5   5 64.2849 3.77588   1
  -5   5   7 18.5797 1.64958  -2
   5   5   5 18.5797 1.64958   1
   6   5   5 290.070 10.4606   2
   6   5   5 225.775 13.5236   1
  -6   5   8 444.019 20.0284  -2
   6   5   5 444.019 20.0284   1
  -7   5   8 284.050 8.59117  -2
   7   5   5 284.050 8.59117   1
  -8   5   8 44.7969 4.69551  -2
   8   5   5 44.7969 4.69551   1
  -9   5   9 36.0310 3.65748  -2
   9   5   5 36.0310 3.65748   1
 -10   5   9 36.7649 3.86101  -2
  10   5   5 36.7649 3.86101   1
 -11   5  10 52.7515 5.31631  -2
  11   5   5 52.7515 5.31631   1
 -12   5  10 69.3562 5.18990  -2
  12   5   5 69.3562 5.18990   1
  13   5   5 32.2143 10.7822   1
 -13   5  10 84.6163 19.5976  -2
  13   5   5 84.6163 19.5976   1
 -14   5  11 10.6189 4.66844  -2
  14   5   5 10.6189 4.66844   1
 -15   6   1 36.8091 7.70988  -2
 -15   6   5 36.8091 7.70988   1
 -14   6   1 15.5754 3.99289  -2
 -14   6   5 15.5754 3.99289   1
 -13   6   1 324.524 29.8011  -2
 -13   6   5 324.524 29.8011   1
  12   6   0 135.464 6.22853  -2
 -12   6   5 135.464 6.22853   1
  11   6   0 75.0794 5.09232  -2
 -11   6   5 75.0794 5.09232   1
  10   6   1 51.4994 3.78997  -2
 -10   6   5 51.4994 3.78997   1
   9   6   1 604.780 17.8839  -2
  -9   6   5 604.780 17.8839   1
   8   6   2 224.753 8.32984  -2
  -8   6   5 224.753 8.32984   1
   7   6   2 197.673 7.24150  -2
  -7   6   5 197.673 7.24150   1
  -6   6   5 11.2285 2.04652   2
   6   6   3 -1.6493 7.55677  -2
  -6   6   5 -1.6493 7.55677   1
  -6   6   5 6.51023 1.69521   1
   6   6   2 173.601 24.6593  -2
  -6   6   5 173.601 24.6593   1
   5   6   3 264.258 7.12384  -2
  -5   6   5 264.258 7.12384   1
   4   6   3 647.723 15.9387  -2
  -4   6   5 647.723 15.9387   1
   3   6   4 189.930 5.75278  -2
  -3   6   5 189.930 5.75278   1
  -3   6   5 1.66299 0.72359   2
   2   6   4 5.10940 1.40090  -2
  -2   6   5 5.10940 1.40090   1
  -1   6   5 19.9883 1.41773   1
   1   6   5 28.7408 3.57481  -2
  -1   6   5 28.7408 3.57481   1
  -1   6   5 30.8813 1.84542   2
   0   6   5 2.11984 0.70096  -2
   0   6   5 2.11984 0.70096   1
   1   6   5 6.81273 0.83314   2
   1   6   5 3.24968 0.93279   1
  -1   6   5 21.5803 4.31601  -2
   1   6   5 21.5803 4.31601   1
  -2   6   6 18.1581 1.90815  -2
   2   6   5 18.1581 1.90815   1
  -3   6   6 108.497 4.09927  -2
   3   6   5 108.497 4.09927   1
  -4   6   7 132.152 4.86890  -2
   4   6   5 132.152 4.86890   1
  -5   6   7 64.2751 2.65949  -2
   5   6   5 64.2751 2.65949   1
   6   6   5 -0.4215 1.37754   2
  -6   6   8 15.7544 3.07107  -2
   6   6   5 15.7544 3.07107   1
   6   6   5 0.37977 1.78212   1
  -7   6   8 103.906 4.40909  -2
   7   6   5 103.906 4.40909   1
  -8   6   8 62.7566 6.50952  -2
   8   6   5 62.7566 6.50952   1
  -9   6   9 50.4095 4.19418  -2
   9   6   5 50.4095 4.19418   1
 -10   6   9 -4.1954 3.33936  -2
  10   6   5 -4.1954 3.33936   1
 -11   6  10 54.3673 7.27507  -2
  11   6   5 54.3673 7.27507   1
 -12   6  10 78.5521 6.46419  -2
  12   6   5 78.5521 6.46419   1
 -13   6  10 0.91498 10.6727  -2
  13   6   5 0.91498 10.6727   1
 -14   6  11 14.4821 5.39639  -2
  14   6   5 14.4821 5.39639   1
 -14   7   1 16.6777 4.48124  -2
 -14   7   5 16.6777 4.48124   1
  12   7   0 43.6671 3.82953  -2
 -12   7   5 43.6671 3.82953   1
  11   7   0 78.5734 7.45855  -2
 -11   7   5 78.5734 7.45855   1
  10   7   1 38.2512 3.77503  -2
 -10   7   5 38.2512 3.77503   1
   9   7   1 138.141 5.61122  -2
  -9   7   5 138.141 5.61122   1
   8   7   2 202.055 11.3936  -2
  -8   7   5 202.055 11.3936   1
   7   7   2 834.237 24.6222  -2
  -7   7   5 834.237 24.6222   1
   6   7   2 348.014 21.6597  -2
  -6   7   5 348.014 21.6597   1
  -6   7   5 94.3536 11.0050   2
   6   7   3 239.103 24.7539  -2
  -6   7   5 239.103 24.7539   1
  -6   7   5 71.4960 7.39588   1
   5   7   3 349.543 9.98820  -2
  -5   7   5 349.543 9.98820   1
   4   7   3 93.4893 4.43575  -2
  -4   7   5 93.4893 4.43575   1
   3   7   4 1762.44 48.1467  -2
  -3   7   5 1762.44 48.1467   1
  -3   7   5 343.137 20.3033   2
   2   7   4 2381.63 61.9068  -2
  -2   7   5 2381.63 61.9068   1
   1   7   5 318.902 11.5598  -2
  -1   7   5 318.902 11.5598   1
  -1   7   5 199.609 7.88607   1
  -1   7   5 246.420 8.59677   2
   0   7   5 5.52053 0.96687  -2
   0   7   5 5.52053 0.96687   1
  -1   7   5 334.171 13.7201  -2
   1   7   5 334.171 13.7201   1
   1   7   5 102.950 4.58885   1
  -1   7   6 431.293 36.4938  -2
   1   7   5 431.293 36.4938   1
   1   7   5 134.930 5.35555   2
  -2   7   6 1334.98 35.1655  -2
   2   7   5 1334.98 35.1655   1
  -3   7   6 1167.41 29.7849  -2
   3   7   5 1167.41 29.7849   1
  -4   7   7 10.9975 2.83974  -2
   4   7   5 10.9975 2.83974   1
  -5   7   7 210.902 7.91793  -2
   5   7   5 210.902 7.91793   1
   6   7   5 2.27547 1.09848   1
   6   7   5 5.82607 2.48182   2
  -6   7   8 29.4457 10.4759  -2
   6   7   5 29.4457 10.4759   1
  -7   7   8 766.585 21.1770  -2
   7   7   5 766.585 21.1770   1
   8   7   5 -9.8963 13.2155   1
  -8   7   8 18.1420 2.31820  -2
   8   7   5 18.1420 2.31820   1
  -9   7   9 114.133 6.45543  -2
   9   7   5 114.133 6.45543   1
 -10   7   9 16.3233 3.29727  -2
  10   7   5 16.3233 3.29727   1
 -11   7  10 177.495 9.62378  -2
  11   7   5 177.495 9.62378   1
 -12   7  10 27.8979 3.76975  -2
  12   7   5 27.8979 3.76975   1
 -13   7  10 2.68512 14.4326  -2
  13   7   5 2.68512 14.4326   1
 -14   7  11 13.8131 5.78667  -2
  14   7   5 13.8131 5.78667   1
 -14   8   1 -1.5649 4.54325  -2
 -14   8   5 -1.5649 4.54325   1
  12   8   0 51.9083 4.69452  -2
 -12   8   5 51.9083 4.69452   1
  11   8   0 95.8792 7.20573  -2
 -11   8   5 95.8792 7.20573   1
  10   8   1 99.8661 5.32196  -2
 -10   8   5 99.8661 5.32196   1
   9   8   1 49.4484 3.75658  -2
  -9   8   5 49.4484 3.75658   1
   8   8   2 141.979 6.65789  -2
  -8   8   5 141.979 6.65789   1
  -8   8   5 185.258 36.0551   2
   7   8   2 417.165 11.8180  -2
  -7   8   5 417.165 11.8180   1
   6   8   2 31.7114 7.32587  -2
  -6   8   5 31.7114 7.32587   1
  -6   8   5 46.1430 7.29325   2
   6   8   3 458.375 42.4994  -2
  -6   8   5 458.375 42.4994   1
   5   8   3 4.36419 2.47479  -2
  -5   8   5 4.36419 2.47479   1
   4   8   3 92.6001 5.52401  -2
  -4   8   5 92.6001 5.52401   1
   3   8   4 182.204 6.04173  -2
  -3   8   5 182.204 6.04173   1
   2   8   4 155.035 4.93101  -2
  -2   8   5 155.035 4.93101   1
  -1   8   5 115.630 7.24238   1
   1   8   5 174.436 6.06011  -2
  -1   8   5 174.436 6.06011   1
  -1   8   5 150.701 7.62344   2
   0   8   5 61.6117 2.23913  -2
   0   8   5 61.6117 2.23913   1
   1   8   5 65.1515 5.41926   2
  -1   8   5 212.459 7.87354  -2
   1   8   5 212.459 7.87354   1
   1   8   5 54.1486 4.59998   1
  -2   8   6 554.715 13.8224  -2
   2   8   5 554.715 13.8224   1
  -3   8   6 445.388 15.8633  -2
   3   8   5 445.388 15.8633   1
  -4   8   7 82.6217 6.21838  -2
   4   8   5 82.6217 6.21838   1
  -5   8   7 144.947 6.39285  -2
   5   8   5 144.947 6.39285   1
  -6   8   8 553.213 50.8662  -2
   6   8   5 553.213 50.8662   1
   6   8   5 172.518 17.6296   1
  -7   8   8 46.3940 2.65123  -2
   7   8   5 46.3940 2.65123   1
  -8   8   8 124.305 6.23421  -2
   8   8   5 124.305 6.23421   1
  -9   8   9 156.819 6.83866  -2
   9   8   5 156.819 6.83866   1
 -10   8   9 101.720 7.54412  -2
  10   8   5 101.720 7.54412   1
 -11   8  10 12.4370 5.57694  -2
  11   8   5 12.4370 5.57694   1
 -12   8  10 76.4060 4.90225  -2
  12   8   5 76.4060 4.90225   1
 -13   8  10 40.8564 11.9010  -2
  13   8   5 40.8564 11.9010   1
  12   9   0 98.2967 6.19112  -2
 -12   9   5 98.2967 6.19112   1
  11   9   0 296.982 13.7493  -2
 -11   9   5 296.982 13.7493   1
  10   9   1 88.8683 4.93289  -2
 -10   9   5 88.8683 4.93289   1
   9   9   1 43.1794 3.22070  -2
  -9   9   5 43.1794 3.22070   1
   8   9   2 247.336 9.79924  -2
  -8   9   5 247.336 9.79924   1
   7   9   2 271.533 9.24199  -2
  -7   9   5 271.533 9.24199   1
  -6   9   5 39.5640 7.55339   2
   6   9   2 48.1465 5.84184  -2
  -6   9   5 48.1465 5.84184   1
   5   9   3 122.431 4.90841  -2
  -5   9   5 122.431 4.90841   1
   4   9   3 20.5649 3.23616  -2
  -4   9   5 20.5649 3.23616   1
   3   9   4 67.2589 4.22884  -2
  -3   9   5 67.2589 4.22884   1
   2   9   4 133.811 5.54997  -2
  -2   9   5 133.811 5.54997   1
  -1   9   5 29.4188 4.71871   1
   1   9   5 89.9359 5.56332  -2
  -1   9   5 89.9359 5.56332   1
  -1   9   5 34.2141 2.93507   2
   0   9   5 272.230 8.00252  -2
   0   9   5 272.230 8.00252   1
   1   9   5 60.7423 5.01698   1
  -1   9   5 76.3050 7.94634  -2
   1   9   5 76.3050 7.94634   1
   1   9   5 71.9775 7.91980   2
  -2   9   6 199.597 7.29320  -2
   2   9   5 199.597 7.29320   1
  -3   9   6 170.186 9.60818  -2
   3   9   5 170.186 9.60818   1
  -4   9   7 155.732 6.55109  -2
   4   9   5 155.732 6.55109   1
  -5   9   7 311.468 9.49000  -2
   5   9   5 311.468 9.49000   1
   6   9   5 12.4577 6.64325   1
  -6   9   8 42.5602 40.1805  -2
   6   9   5 42.5602 40.1805   1
  -7   9   8 1.86081 2.24783  -2
   7   9   5 1.86081 2.24783   1
  -8   9   8 82.3413 7.26066  -2
   8   9   5 82.3413 7.26066   1
   8   9   5 47.6233 19.4867   2
  -9   9   9 39.2826 5.58502  -2
   9   9   5 39.2826 5.58502   1
 -10   9   9 9.91133 4.81196  -2
  10   9   5 9.91133 4.81196   1
 -11   9  10 18.1457 5.34586  -2
  11   9   5 18.1457 5.34586   1
 -12   9  10 7.65255 3.82985  -2
  12   9   5 7.65255 3.82985   1
 -13   9  11 6.87642 16.0196  -2
 -13   9  10 6.87642 16.0196  -2
  13   9   5 6.87642 16.0196   1
  13  10   0 20.6375 13.4188  -2
 -13  10   5 20.6375 13.4188   1
  12  10   0 5.56482 3.06253  -2
 -12  10   5 5.56482 3.06253   1
  11  10   0 3.69700 13.8070  -2
 -11  10   5 3.69700 13.8070   1
  10  10   1 183.507 7.83668  -2
 -10  10   5 183.507 7.83668   1
   9  10   1 60.0847 4.36156  -2
  -9  10   5 60.0847 4.36156   1
   8  10   2 13.3007 5.61482  -2
  -8  10   5 13.3007 5.61482   1
   7  10   2 10.4900 2.24055  -2
  -7  10   5 10.4900 2.24055   1
   6  10   2 43.8313 9.28143  -2
  -6  10   5 43.8313 9.28143   1
  -6  10   5 17.0318 7.36133   2
   5  10   3 292.646 10.7349  -2
  -5  10   5 292.646 10.7349   1
   4  10   3 246.808 9.99078  -2
  -4  10   5 246.808 9.99078   1
   3  10   4 203.036 7.98728  -2
  -3  10   5 203.036 7.98728   1
   2  10   4 29.5354 2.86814  -2
  -2  10   5 29.5354 2.86814   1
   1  10   5 89.9315 7.30713  -2
  -1  10   5 89.9315 7.30713   1
  -1  10   5 9.91154 2.26874   2
  -1  10   5 13.3161 6.48378   1
   0  10   5 549.467 13.9284  -2
   0  10   5 549.467 13.9284   1
   1  10   5 80.1335 6.89311   1
  -1  10   5 85.7959 6.20358  -2
   1  10   5 85.7959 6.20358   1
   1  10   5 92.0614 12.8481   2
  -2  10   6 345.750 11.4473  -2
   2  10   5 345.750 11.4473   1
  -3  10   6 167.349 8.01043  -2
   3  10   5 167.349 8.01043   1
  -4  10   7 363.061 12.6172  -2
   4  10   5 363.061 12.6172   1
  -5  10   7 337.431 11.4972  -2
   5  10   5 337.431 11.4972   1
  -6  10   8 98.4567 20.8178  -2
   6  10   5 98.4567 20.8178   1
   6  10   5 83.7087 13.6578   1
  -7  10   8 95.3571 4.67055  -2
   7  10   5 95.3571 4.67055   1
  -8  10   8 131.048 7.91187  -2
   8  10   5 131.048 7.91187   1
  -9  10   9 163.704 7.93635  -2
   9  10   5 163.704 7.93635   1
 -10  10   9 11.8794 3.86150  -2
  10  10   5 11.8794 3.86150   1
 -11  10  10 9.25802 7.12211  -2
  11  10   5 9.25802 7.12211   1
 -12  10  10 35.2753 4.27741  -2
  12  10   5 35.2753 4.27741   1
  12  11   0 24.0290 3.93771  -2
 -12  11   5 24.0290 3.93771   1
  11  11   0 13.5816 6.11493  -2
 -11  11   5 13.5816 6.11493   1
  10  11   1 2.96602 3.71563  -2
 -10  11   5 2.96602 3.71563   1
   9  11   1 1.60216 3.85319  -2
  -9  11   5 1.60216 3.85319   1
   8  11   2 25.0849 7.36840  -2
  -8  11   5 25.0849 7.36840   1
   7  11   2 29.0615 3.42290  -2
  -7  11   5 29.0615 3.42290   1
  -6  11   5 13.8530 8.04928   2
   5  11   3 165.184 7.11545  -2
  -5  11   5 165.184 7.11545   1
   4  11   3 21.8215 6.22627  -2
  -4  11   5 21.8215 6.22627   1
   3  11   4 30.0504 3.74601  -2
  -3  11   5 30.0504 3.74601   1
   2  11   4 17.2843 3.33282  -2
  -2  11   5 17.2843 3.33282   1
   1  11   5 277.492 11.1418  -2
  -1  11   5 277.492 11.1418   1
  -1  11   5 263.389 46.6834   1
   0  11   5 200.097 5.69968  -2
   0  11   5 200.097 5.69968   1
   1  11   5 59.4086 22.1025   2
  -1  11   5 337.048 16.9936  -2
   1  11   5 337.048 16.9936   1
  -2  11   6 55.4488 3.03031  -2
   2  11   5 55.4488 3.03031   1
  -3  11   6 74.6670 5.42851  -2
   3  11   5 74.6670 5.42851   1
  -4  11   7 338.908 13.3114  -2
   4  11   5 338.908 13.3114   1
  -5  11   7 184.843 7.48572  -2
   5  11   5 184.843 7.48572   1
   6  11   5 88.4202 14.7074   1
  -6  11   8 146.025 61.4890  -2
   6  11   5 146.025 61.4890   1
  -7  11   8 65.8055 3.86081  -2
   7  11   5 65.8055 3.86081   1
  -8  11   8 37.1678 6.29425  -2
   8  11   5 37.1678 6.29425   1
  -9  11   9 51.5092 5.52767  -2
   9  11   5 51.5092 5.52767   1
 -10  11   9 134.380 7.82430  -2
  10  11   5 134.380 7.82430   1
 -11  11  10 74.0989 6.80651  -2
  11  11   5 74.0989 6.80651   1
  11  12   0 7.66566 8.43079  -2
 -11  12   5 7.66566 8.43079   1
  10  12   1 31.2702 5.25658  -2
 -10  12   5 31.2702 5.25658   1
   9  12   1 218.295 9.39043  -2
  -9  12   5 218.295 9.39043   1
   8  12   2 99.9946 11.3515  -2
  -8  12   5 99.9946 11.3515   1
   7  12   2 10.6794 2.56936  -2
  -7  12   5 10.6794 2.56936   1
  -6  12   5 5.62600 2.38585   2
   5  12   3 557.113 14.9092  -2
  -5  12   5 557.113 14.9092   1
   4  12   3 51.8243 4.69718  -2
  -4  12   5 51.8243 4.69718   1
   3  12   4 24.5458 5.57663  -2
  -3  12   5 24.5458 5.57663   1
   2  12   4 21.5710 3.36938  -2
  -2  12   5 21.5710 3.36938   1
  -1  12   5 281.755 21.3541   2
  -1  12   5 178.870 38.3327   1
   1  12   5 484.008 19.4855  -2
  -1  12   5 484.008 19.4855   1
   0  12   5 104.268 4.64846  -2
   0  12   5 104.268 4.64846   1
  -1  12   5 475.601 19.9833  -2
   1  12   5 475.601 19.9833   1
   1  12   5 227.353 35.6453   1
   1  12   5 286.992 49.9101   2
  -2  12   6 39.4423 3.16901  -2
   2  12   5 39.4423 3.16901   1
  -3  12   6 16.6632 4.14379  -2
   3  12   5 16.6632 4.14379   1
  -4  12   7 47.6571 4.21049  -2
   4  12   5 47.6571 4.21049   1
  -5  12   7 144.255 6.08242  -2
   5  12   5 144.255 6.08242   1
  -7  12   8 82.9072 5.41123  -2
   7  12   5 82.9072 5.41123   1
  -8  12   8 19.6399 6.92116  -2
   8  12   5 19.6399 6.92116   1
  -9  12   9 18.5864 4.45889  -2
   9  12   5 18.5864 4.45889   1
 -10  12   9 1.35990 4.18799  -2
  10  12   5 1.35990 4.18799   1
 -11  12  10 9.20316 7.92498  -2
  11  12   5 9.20316 7.92498   1
  11  13   0 17.5540 13.8954  -2
 -11  13   5 17.5540 13.8954   1
  10  13   1 23.4845 5.32244  -2
 -10  13   5 23.4845 5.32244   1
   9  13   1 21.6382 4.71810  -2
  -9  13   5 21.6382 4.71810   1
   8  13   2 18.7575 13.6920  -2
  -8  13   5 18.7575 13.6920   1
   7  13   2 174.908 7.38871  -2
  -7  13   5 174.908 7.38871   1
   6  13   2 50.2186 74.3096  -2
  -6  13   5 50.2186 74.3096   1
   5  13   3 20.6464 2.91167  -2
  -5  13   5 20.6464 2.91167   1
   4  13   3 26.8657 3.67910  -2
  -4  13   5 26.8657 3.67910   1
   3  13   4 263.399 9.53850  -2
  -3  13   5 263.399 9.53850   1
   2  13   4 180.603 7.22358  -2
  -2  13   5 180.603 7.22358   1
   1  13   5 172.219 10.3227  -2
  -1  13   5 172.219 10.3227   1
   0  13   5 4.44005 1.53128  -2
   0  13   5 4.44005 1.53128   1
   1  13   5 118.623 15.3404   1
  -1  13   5 146.368 11.2519  -2
   1  13   5 146.368 11.2519   1
  -2  13   6 129.332 5.28646  -2
   2  13   5 129.332 5.28646   1
  -3  13   6 20.5382 3.94088  -2
   3  13   5 20.5382 3.94088   1
  -4  13   7 19.7660 4.28988  -2
   4  13   5 19.7660 4.28988   1
  -5  13   7 133.867 8.14883  -2
   5  13   5 133.867 8.14883   1
  -6  13   7 44.4466 11.3564  -2
   6  13   5 44.4466 11.3564   1
  -6  13   8 43.4967 15.5523  -2
   6  13   5 43.4967 15.5523   1
  -7  13   8 57.7424 4.50708  -2
   7  13   5 57.7424 4.50708   1
  -8  13   8 97.2153 6.84933  -2
   8  13   5 97.2153 6.84933   1
  -9  13   9 103.265 6.15793  -2
   9  13   5 103.265 6.15793   1
 -10  13   9 12.7197 4.89109  -2
  10  13   5 12.7197 4.89109   1
 -10  14   5 18.1883 8.33203   2
  10  14   1 37.5496 8.33770  -2
 -10  14   5 37.5496 8.33770   1
   9  14   1 6.70103 4.48361  -2
  -9  14   5 6.70103 4.48361   1
   8  14   2 21.1828 7.15438  -2
  -8  14   5 21.1828 7.15438   1
   7  14   2 15.9879 2.79410  -2
  -7  14   5 15.9879 2.79410   1
   5  14   3 46.0210 3.33288  -2
  -5  14   5 46.0210 3.33288   1
   4  14   3 36.8476 4.38169  -2
  -4  14   5 36.8476 4.38169   1
   3  14   4 5.34033 3.26339  -2
  -3  14   5 5.34033 3.26339   1
   2  14   4 11.1396 3.02004  -2
  -2  14   5 11.1396 3.02004   1
   1  14   5 -10.798 33.0148  -2
  -1  14   5 -10.798 33.0148   1
   1  14   4 87.8288 19.4307  -2
   1  14   5 87.8288 19.4307  -2
  -1  14   5 87.8288 19.4307   1
   0  14   5 46.4524 2.95376  -2
   0  14   5 46.4524 2.95376   1
  -1  14   5 6.01127 12.4910  -2
   1  14   5 6.01127 12.4910   1
  -2  14   6 121.168 7.15253  -2
   2  14   5 121.168 7.15253   1
  -3  14   6 129.164 8.95932  -2
   3  14   5 129.164 8.95932   1
  -4  14   7 47.1728 6.76942  -2
   4  14   5 47.1728 6.76942   1
  -5  14   7 32.9094 3.73777  -2
   5  14   5 32.9094 3.73777   1
  -6  14   8 90.8678 18.0290  -2
   6  14   5 90.8678 18.0290   1
  -7  14   8 83.0227 4.15680  -2
   7  14   5 83.0227 4.15680   1
  -8  14   8 11.9479 5.52870  -2
   8  14   5 11.9479 5.52870   1
  -9  14   9 32.4411 7.76746  -2
   9  14   5 32.4411 7.76746   1
   8  15   2 35.7687 14.2275  -2
  -8  15   5 35.7687 14.2275   1
   7  15   2 133.666 6.14058  -2
  -7  15   5 133.666 6.14058   1
   5  15   3 49.2474 4.49342  -2
  -5  15   5 49.2474 4.49342   1
   4  15   3 6.05166 4.51322  -2
  -4  15   5 6.05166 4.51322   1
   3  15   4 146.436 7.31764  -2
  -3  15   5 146.436 7.31764   1
   2  15   4 81.7584 4.88517  -2
  -2  15   5 81.7584 4.88517   1
   1  15   4 20.8289 16.3652  -2
   1  15   5 20.8289 16.3652  -2
  -1  15   5 20.8289 16.3652   1
   0  15   5 59.7361 3.47849  -2
   0  15   5 59.7361 3.47849   1
  -1  15   5 21.6789 9.87030  -2
   1  15   5 21.6789 9.87030   1
  -2  15   6 41.7475 4.71902  -2
   2  15   5 41.7475 4.71902   1
  -3  15   6 10.0303 4.68328  -2
   3  15   5 10.0303 4.68328   1
  -4  15   7 42.2118 6.20457  -2
   4  15   5 42.2118 6.20457   1
  -5  15   7 2.54600 3.85811  -2
   5  15   5 2.54600 3.85811   1
  -6  15   7 -2.5546 7.60347  -2
   6  15   5 -2.5546 7.60347   1
  -7  15   8 9.53596 3.16215  -2
   7  15   5 9.53596 3.16215   1
  -8  15   8 13.8160 6.14848  -2
   8  15   5 13.8160 6.14848   1
   7  16   2 20.2945 3.24048  -2
  -7  16   5 20.2945 3.24048   1
   6  16   2 43.4072 15.1804  -2
  -6  16   5 43.4072 15.1804   1
   5  16   3 10.1491 3.54845  -2
  -5  16   5 10.1491 3.54845   1
   4  16   3 126.782 9.03574  -2
  -4  16   5 126.782 9.03574   1
   3  16   4 121.561 9.21201  -2
  -3  16   5 121.561 9.21201   1
   2  16   4 30.7537 3.38710  -2
  -2  16   5 30.7537 3.38710   1
   1  16   5 16.1772 12.9291  -2
  -1  16   5 16.1772 12.9291   1
   0  16   5 145.887 6.64805  -2
   0  16   5 145.887 6.64805   1
  -1  16   5 24.7449 12.9909  -2
   1  16   5 24.7449 12.9909   1
  -2  16   6 42.5588 4.97373  -2
   2  16   5 42.5588 4.97373   1
  -3  16   6 23.7475 4.42657  -2
   3  16   5 23.7475 4.42657   1
  -4  16   7 76.7359 7.18268  -2
   4  16   5 76.7359 7.18268   1
  -5  16   7 15.3256 3.97216  -2
   5  16   5 15.3256 3.97216   1
  -6  16   7 6.68941 9.73858  -2
   6  16   5 6.68941 9.73858   1
   5  17   3 -1.2907 3.32114  -2
  -5  17   5 -1.2907 3.32114   1
  -5  17   5 1.92434 6.47722   2
   4  17   3 3.58695 8.26956  -2
  -4  17   5 3.58695 8.26956   1
   3  17   4 19.2275 5.59707  -2
  -3  17   5 19.2275 5.59707   1
   2  17   4 23.0118 3.55751  -2
  -2  17   5 23.0118 3.55751   1
   1  17   5 6.96378 8.48930  -2
  -1  17   5 6.96378 8.48930   1
   0  17   5 74.4888 4.58922  -2
   0  17   5 74.4888 4.58922   1
  -1  17   5 20.0501 12.4875  -2
   1  17   5 20.0501 12.4875   1
  -2  17   6 32.8323 4.16655  -2
   2  17   5 32.8323 4.16655   1
  -3  17   6 81.3743 6.56776  -2
   3  17   5 81.3743 6.56776   1
  -4  17   7 46.2045 11.5931  -2
   4  17   5 46.2045 11.5931   1
  15   0   0 -5.1571 7.34719  -2
 -15   0   6 -5.1571 7.34719   1
  14   0   0 126.729 10.5296  -2
 -14   0   6 126.729 10.5296   1
  12   0   1 6.75268 5.34580  -2
 -12   0   6 6.75268 5.34580   1
  11   0   1 163.501 10.9964  -2
 -11   0   6 163.501 10.9964   1
  10   0   2 207.960 8.30480  -2
 -10   0   6 207.960 8.30480   1
   9   0   2 0.93421 2.23769  -2
  -9   0   6 0.93421 2.23769   1
  -8   0   6 188.549 16.7597   2
  -8   0   6 205.244 17.7022   1
   8   0   3 205.565 10.8006  -2
  -8   0   6 205.565 10.8006   1
   7   0   3 994.079 29.5180  -2
  -7   0   6 994.079 29.5180   1
  -6   0   6 279.041 13.1731   2
  -6   0   6 219.756 9.99375   1
   6   0   3 197.221 13.1174  -2
  -6   0   6 197.221 13.1174   1
   5   0   4 0.43477 1.67160  -2
  -5   0   6 0.43477 1.67160   1
  -4   0   6 7.54654 2.38217   1
   4   0   4 100.153 4.25347  -2
  -4   0   6 100.153 4.25347   1
  -4   0   6 14.1918 3.78109   2
   3   0   5 821.388 24.6411  -2
  -3   0   6 821.388 24.6411   1
  -3   0   6 7.42994 3.26700   2
  -3   0   6 4.21496 2.38430   1
   2   0   5 24.3215 1.78569  -2
  -2   0   6 24.3215 1.78569   1
  -1   0   6 3.05334 1.43145   1
  -1   0   6 2.13636 1.48993   2
   1   0   6 3.69129 1.95449  -2
  -1   0   6 3.69129 1.95449   1
   0   0   6 1312.50 32.8491  -2
   0   0   6 1312.50 32.8491   1
  -1   0   6 6.27012 2.38288  -2
   1   0   6 6.27012 2.38288   1
   1   0   6 0.06828 1.49229   2
   1   0   6 0.89427 1.65215   1
  -2   0   7 60.1039 3.17197  -2
   2   0   6 60.1039 3.17197   1
  -3   0   7 333.012 12.1135  -2
   3   0   6 333.012 12.1135   1
   3   0   6 -0.8089 2.09794   2
  -4   0   8 776.001 30.4958  -2
   4   0   6 776.001 30.4958   1
  -5   0   8 -2.1208 2.49946  -2
   5   0   6 -2.1208 2.49946   1
  -6   0   9 -4.2559 3.99056  -2
   6   0   6 -4.2559 3.99056   1
   6   0   6 6.86233 2.63587   2
  -7   0   9 522.966 19.5483  -2
   7   0   6 522.966 19.5483   1
  -8   0   9 26.0114 3.94284  -2
   8   0   6 26.0114 3.94284   1
  -9   0  10 1.31030 2.82455  -2
   9   0   6 1.31030 2.82455   1
 -10   0  10 203.530 11.3658  -2
  10   0   6 203.530 11.3658   1
 -11   0  11 152.619 11.9891  -2
  11   0   6 152.619 11.9891   1
 -12   0  11 68.6958 8.94553  -2
  12   0   6 68.6958 8.94553   1
 -14   0  12 19.2519 5.27629  -2
  14   0   6 19.2519 5.27629   1
 -15   0  12 -7.7875 12.9365  -2
  15   0   6 -7.7875 12.9365   1
  15   1   0 23.3692 6.19877  -2
 -15   1   6 23.3692 6.19877   1
  14   1   0 243.864 12.0275  -2
 -14   1   6 243.864 12.0275   1
  12   1   1 76.3179 3.64072  -2
 -12   1   6 76.3179 3.64072   1
  11   1   1 164.234 7.17469  -2
 -11   1   6 164.234 7.17469   1
  10   1   2 405.501 10.9532  -2
 -10   1   6 405.501 10.9532   1
   9   1   2 248.576 9.09363  -2
  -9   1   6 248.576 9.09363   1
  -8   1   6 13.5327 1.52802   1
   8   1   3 59.4720 5.14893  -2
  -8   1   6 59.4720 5.14893   1
  -8   1   6 16.3368 17.4449   2
   7   1   3 724.506 16.8882  -2
  -7   1   6 724.506 16.8882   1
  -6   1   6 6.10710 1.34475   1
   6   1   3 6.65921 3.01563  -2
  -6   1   6 6.65921 3.01563   1
  -6   1   6 2.74810 1.23786   2
   5   1   4 972.742 24.6513  -2
  -5   1   6 972.742 24.6513   1
   4   1   4 1131.99 30.4907  -2
  -4   1   6 1131.99 30.4907   1
  -4   1   6 205.038 9.13765   1
  -4   1   6 214.854 14.5010   2
  -3   1   6 240.071 15.0182   2
   3   1   5 2281.69 60.9033  -2
  -3   1   6 2281.69 60.9033   1
  -3   1   6 257.189 10.5963   1
   2   1   5 1668.83 32.5688  -2
  -2   1   6 1668.83 32.5688   1
  -1   1   6 132.430 7.04831   2
  -1   1   6 101.882 3.87702   1
   1   1   6 179.194 5.01654  -2
  -1   1   6 179.194 5.01654   1
   0   1   6 1766.21 31.3273  -2
   0   1   6 1766.21 31.3273   1
   1   1   6 72.4820 2.88491   2
  -1   1   6 186.576 4.82605  -2
   1   1   6 186.576 4.82605   1
   1   1   6 57.8930 3.61089   1
  -2   1   7 3721.44 79.5841  -2
   2   1   6 3721.44 79.5841   1
  -3   1   7 2987.29 62.9792  -2
   3   1   6 2987.29 62.9792   1
   3   1   6 2036.91 158.089   2
  -4   1   8 358.046 9.01937  -2
   4   1   6 358.046 9.01937   1
   4   1   6 357.115 20.9717   2
  -5   1   8 168.509 5.11522  -2
   5   1   6 168.509 5.11522   1
   6   1   6 32.7823 2.16329   2
  -6   1   9 697.048 31.1011  -2
   6   1   6 697.048 31.1011   1
   6   1   6 15.4084 13.2057   1
  -6   1   8 267.782 25.4439  -2
   6   1   6 267.782 25.4439   1
  -7   1   9 897.244 21.7367  -2
   7   1   6 897.244 21.7367   1
  -8   1   9 255.322 10.5661  -2
   8   1   6 255.322 10.5661   1
  -9   1  10 39.7723 3.56044  -2
   9   1   6 39.7723 3.56044   1
 -10   1  10 83.4578 4.50905  -2
  10   1   6 83.4578 4.50905   1
 -11   1  11 69.2957 4.38274  -2
  11   1   6 69.2957 4.38274   1
 -12   1  11 158.426 9.59626  -2
  12   1   6 158.426 9.59626   1
 -13   1  11 31.2301 17.0924  -2
  13   1   6 31.2301 17.0924   1
 -14   1  12 63.4894 5.31205  -2
  14   1   6 63.4894 5.31205   1
 -15   1  12 23.9646 7.78131  -2
  15   1   6 23.9646 7.78131   1
  15   2   0 11.1806 5.75219  -2
 -15   2   6 11.1806 5.75219   1
  14   2   0 14.8604 4.65050  -2
 -14   2   6 14.8604 4.65050   1
  12   2   1 49.7459 3.72102  -2
 -12   2   6 49.7459 3.72102   1
  11   2   1 115.286 6.55960  -2
 -11   2   6 115.286 6.55960   1
  10   2   2 49.4318 2.65362  -2
 -10   2   6 49.4318 2.65362   1
 -10   2   6 2.76598 1.38360   1
   9   2   2 59.7399 2.00379  -2
  -9   2   6 59.7399 2.00379   1
   8   2   3 112.422 5.95730  -2
  -8   2   6 112.422 5.95730   1
   7   2   3 481.042 12.5500  -2
  -7   2   6 481.042 12.5500   1
  -6   2   6 66.7170 3.25447   2
   6   2   3 118.658 7.01162  -2
  -6   2   6 118.658 7.01162   1
  -6   2   6 62.3191 3.52370   1
   5   2   4 458.124 12.6555  -2
  -5   2   6 458.124 12.6555   1
   4   2   4 1878.06 53.7002  -2
  -4   2   6 1878.06 53.7002   1
  -4   2   6 1105.92 52.6501   1
  -4   2   6 1426.03 118.468   2
  -3   2   6 644.289 53.8218   2
   3   2   5 523.437 12.5075  -2
  -3   2   6 523.437 12.5075   1
  -3   2   6 532.521 22.1212   1
   2   2   5 856.844 16.5871  -2
  -2   2   6 856.844 16.5871   1
   1   2   6 1164.19 34.0435  -2
  -1   2   6 1164.19 34.0435   1
  -1   2   6 433.469 11.8844   1
  -1   2   6 504.494 14.9796   2
   0   2   6 3611.31 60.8541  -2
   0   2   6 3611.31 60.8541   1
  -1   2   6 1151.58 29.7739  -2
   1   2   6 1151.58 29.7739   1
   1   2   6 674.952 18.2533   1
   1   2   6 805.939 20.9736   2
  -2   2   7 17.5771 1.55784  -2
   2   2   6 17.5771 1.55784   1
  -3   2   7 183.693 5.01894  -2
   3   2   6 183.693 5.01894   1
   3   2   6 33.5658 4.06497   2
   4   2   6 213.287 18.0162   2
  -4   2   8 1130.92 28.9076  -2
   4   2   6 1130.92 28.9076   1
  -5   2   8 1025.31 24.0951  -2
   5   2   6 1025.31 24.0951   1
   6   2   6 7.69018 1.52299   2
   6   2   6 -0.2721 10.6663   1
  -6   2   9 140.130 6.82688  -2
   6   2   6 140.130 6.82688   1
  -6   2   8 220.169 23.0131  -2
   6   2   6 220.169 23.0131   1
  -7   2   9 144.140 4.62677  -2
   7   2   6 144.140 4.62677   1
   8   2   6 20.3283 1.93644   1
  -8   2   9 62.8617 5.82017  -2
   8   2   6 62.8617 5.82017   1
  -9   2  10 174.610 7.76542  -2
   9   2   6 174.610 7.76542   1
 -10   2  10 283.235 11.0162  -2
  10   2   6 283.235 11.0162   1
 -11   2  11 86.0139 6.42188  -2
  11   2   6 86.0139 6.42188   1
 -12   2  11 117.136 6.40369  -2
  12   2   6 117.136 6.40369   1
 -13   2  12 -5.6951 13.9934  -2
  13   2   6 -5.6951 13.9934   1
 -14   2  12 175.516 9.19518  -2
  14   2   6 175.516 9.19518   1
 -15   2  12 20.6654 7.75988  -2
  15   2   6 20.6654 7.75988   1
  15   3   0 61.8348 11.4557  -2
 -15   3   6 61.8348 11.4557   1
  14   3   0 6.42805 4.06374  -2
 -14   3   6 6.42805 4.06374   1
  12   3   1 105.191 5.07678  -2
 -12   3   6 105.191 5.07678   1
  11   3   1 59.2595 5.09920  -2
 -11   3   6 59.2595 5.09920   1
  10   3   2 28.0520 3.46535  -2
 -10   3   6 28.0520 3.46535   1
   9   3   2 151.724 5.89801  -2
  -9   3   6 151.724 5.89801   1
   8   3   3 -1.7884 4.74381  -2
  -8   3   6 -1.7884 4.74381   1
  -8   3   6 2.57910 3.77698   1
   7   3   3 35.6269 2.32357  -2
  -7   3   6 35.6269 2.32357   1
  -6   3   6 33.7684 1.97020   2
  -6   3   6 28.0910 2.45752   1
   6   3   3 409.557 23.6861  -2
  -6   3   6 409.557 23.6861   1
   5   3   4 464.066 13.1085  -2
  -5   3   6 464.066 13.1085   1
  -4   3   6 156.543 8.49119   1
   4   3   4 271.893 7.90433  -2
  -4   3   6 271.893 7.90433   1
  -4   3   6 208.819 18.2795   2
   3   3   5 144.553 3.90955  -2
  -3   3   6 144.553 3.90955   1
  -3   3   6 130.444 9.46421   1
   2   3   5 109.100 3.05611  -2
  -2   3   6 109.100 3.05611   1
  -1   3   6 79.6334 2.31878   1
  -1   3   6 79.5172 2.87846   2
   1   3   6 141.831 9.13852  -2
  -1   3   6 141.831 9.13852   1
   0   3   6 15.3532 0.82456  -2
   0   3   6 15.3532 0.82456   1
   1   3   6 58.6053 2.30117   1
  -1   3   6 138.885 6.64302  -2
   1   3   6 138.885 6.64302   1
   1   3   6 71.8728 2.57322   2
  -2   3   7 26.5693 1.36389  -2
   2   3   6 26.5693 1.36389   1
  -3   3   7 124.047 3.50315  -2
   3   3   6 124.047 3.50315   1
   3   3   6 64.3109 8.19021   2
  -4   3   8 269.278 7.19060  -2
   4   3   6 269.278 7.19060   1
   4   3   6 222.295 13.7506   2
  -5   3   8 61.9385 2.57721  -2
   5   3   6 61.9385 2.57721   1
   6   3   6 66.3778 3.72081   2
   6   3   6 42.0210 4.70799   1
  -6   3   9 65.1412 4.33135  -2
   6   3   6 65.1412 4.33135   1
  -7   3   9 11.0167 1.43101  -2
   7   3   6 11.0167 1.43101   1
  -8   3   9 21.6459 4.08420  -2
   8   3   6 21.6459 4.08420   1
  -9   3  10 88.4256 5.49854  -2
   9   3   6 88.4256 5.49854   1
 -10   3  10 42.8535 3.85781  -2
  10   3   6 42.8535 3.85781   1
 -11   3  11 -3.9935 3.78841  -2
  11   3   6 -3.9935 3.78841   1
 -12   3  11 22.0793 3.57004  -2
  12   3   6 22.0793 3.57004   1
 -13   3  11 11.6393 11.4565  -2
  13   3   6 11.6393 11.4565   1
 -13   3  12 17.0791 17.1696  -2
  13   3   6 17.0791 17.1696   1
 -14   3  12 24.9987 3.70244  -2
  14   3   6 24.9987 3.70244   1
  15   4   0 19.1353 13.9574  -2
 -15   4   6 19.1353 13.9574   1
  14   4   0 94.1087 7.13164  -2
 -14   4   6 94.1087 7.13164   1
  12   4   1 57.9015 4.81025  -2
 -12   4   6 57.9015 4.81025   1
  11   4   1 185.276 7.97470  -2
 -11   4   6 185.276 7.97470   1
  10   4   2 335.036 11.2737  -2
 -10   4   6 335.036 11.2737   1
   9   4   2 163.692 6.28207  -2
  -9   4   6 163.692 6.28207   1
   8   4   3 64.7812 5.71171  -2
  -8   4   6 64.7812 5.71171   1
  -8   4   6 38.2346 24.0708   2
  -8   4   6 58.7914 8.53468   1
   7   4   3 886.351 23.2753  -2
  -7   4   6 886.351 23.2753   1
  -6   4   6 14.3663 1.48702   1
   6   4   3 83.4207 4.46697  -2
  -6   4   6 83.4207 4.46697   1
  -6   4   6 15.1044 1.78128   2
   5   4   4 308.326 9.11183  -2
  -5   4   6 308.326 9.11183   1
   4   4   4 720.589 22.3511  -2
  -4   4   6 720.589 22.3511   1
  -4   4   6 547.378 26.9981   1
  -3   4   6 177.560 17.1585   1
   3   4   5 412.049 10.4956  -2
  -3   4   6 412.049 10.4956   1
   2   4   5 777.057 17.1531  -2
  -2   4   6 777.057 17.1531   1
  -1   4   6 6.82340 0.95128   1
   1   4   6 11.2554 2.64972  -2
  -1   4   6 11.2554 2.64972   1
  -1   4   6 10.0707 1.09528   2
   0   4   6 3302.74 71.4040  -2
   0   4   6 3302.74 71.4040   1
  -1   4   6 16.1096 1.84566  -2
   1   4   6 16.1096 1.84566   1
   1   4   6 5.37104 0.91879   2
   1   4   6 4.99789 0.73920   1
  -2   4   7 38.7000 2.38659  -2
   2   4   6 38.7000 2.38659   1
  -3   4   7 15.3204 2.05433  -2
   3   4   6 15.3204 2.05433   1
  -4   4   8 1829.28 40.4793  -2
   4   4   6 1829.28 40.4793   1
  -5   4   8 263.837 6.95321  -2
   5   4   6 263.837 6.95321   1
   6   4   6 266.832 22.8887   1
  -6   4   9 320.715 15.1038  -2
   6   4   6 320.715 15.1038   1
   6   4   6 352.967 15.8472   2
  -7   4   9 184.513 6.57270  -2
   7   4   6 184.513 6.57270   1
  -8   4   9 88.9966 5.76159  -2
   8   4   6 88.9966 5.76159   1
  -9   4  10 360.445 12.1796  -2
   9   4   6 360.445 12.1796   1
 -10   4  10 127.587 5.86670  -2
  10   4   6 127.587 5.86670   1
 -11   4  11 55.5586 5.73473  -2
  11   4   6 55.5586 5.73473   1
 -12   4  11 11.5807 3.06453  -2
  12   4   6 11.5807 3.06453   1
 -13   4  11 89.1523 20.4029  -2
  13   4   6 89.1523 20.4029   1
  13   4   6 29.3016 10.0725   1
 -14   4  12 33.2841 4.10246  -2
  14   4   6 33.2841 4.10246   1
  15   5   0 4.45409 13.1143  -2
 -15   5   6 4.45409 13.1143   1
  14   5   0 115.504 7.94318  -2
 -14   5   6 115.504 7.94318   1
  12   5   1 20.7408 4.29809  -2
 -12   5   6 20.7408 4.29809   1
  11   5   1 102.016 12.2177  -2
 -11   5   6 102.016 12.2177   1
  10   5   2 261.866 10.4164  -2
 -10   5   6 261.866 10.4164   1
   9   5   2 52.8311 2.67288  -2
  -9   5   6 52.8311 2.67288   1
   8   5   3 197.771 6.58899  -2
  -8   5   6 197.771 6.58899   1
  -8   5   6 109.458 6.70662   1
   7   5   3 247.300 7.65711  -2
  -7   5   6 247.300 7.65711   1
  -6   5   6 239.476 9.59330   1
  -6   5   6 291.174 13.4250   2
   6   5   3 331.155 19.6695  -2
  -6   5   6 331.155 19.6695   1
   5   5   4 313.101 8.33176  -2
  -5   5   6 313.101 8.33176   1
   4   5   4 479.154 13.9317  -2
  -4   5   6 479.154 13.9317   1
  -4   5   6 262.091 13.6226   1
  -4   5   6 333.368 27.9397   2
   3   5   5 307.649 8.03263  -2
  -3   5   6 307.649 8.03263   1
   2   5   5 404.112 9.21873  -2
  -2   5   6 404.112 9.21873   1
  -1   5   6 23.0902 1.36697   2
  -1   5   6 17.1285 1.59009   1
   1   5   6 97.2589 5.08554  -2
  -1   5   6 97.2589 5.08554   1
   0   5   6 6.41565 1.03416  -2
   0   5   6 6.41565 1.03416   1
   1   5   6 74.7075 3.41324   1
  -1   5   6 95.1187 4.07828  -2
   1   5   6 95.1187 4.07828   1
   1   5   6 89.7073 3.78083   2
  -2   5   7 109.754 3.58620  -2
   2   5   6 109.754 3.58620   1
   2   5   6 128.290 11.4523   2
  -3   5   7 101.973 3.89289  -2
   3   5   6 101.973 3.89289   1
  -4   5   8 87.4837 4.34920  -2
   4   5   6 87.4837 4.34920   1
  -5   5   8 120.550 3.83187  -2
   5   5   6 120.550 3.83187   1
  -6   5   9 -11.676 2.92684  -2
   6   5   6 -11.676 2.92684   1
   6   5   6 8.11697 2.02089   2
   6   5   6 -3.1997 1.74577   1
  -7   5   9 503.646 13.1128  -2
   7   5   6 503.646 13.1128   1
  -8   5   9 286.021 12.4969  -2
   8   5   6 286.021 12.4969   1
  -9   5  10 35.0694 3.38044  -2
   9   5   6 35.0694 3.38044   1
 -10   5  10 3.45447 3.03616  -2
  10   5   6 3.45447 3.03616   1
 -11   5  11 205.296 10.2415  -2
  11   5   6 205.296 10.2415   1
 -12   5  11 124.953 7.44258  -2
  12   5   6 124.953 7.44258   1
  13   5   6 18.9203 10.4132   1
 -13   5  11 22.2923 16.0880  -2
  13   5   6 22.2923 16.0880   1
 -14   5  12 13.9859 5.47759  -2
  14   5   6 13.9859 5.47759   1
  15   6   0 8.91269 6.19469  -2
 -15   6   6 8.91269 6.19469   1
  14   6   0 139.787 7.41213  -2
 -14   6   6 139.787 7.41213   1
  12   6   1 51.2091 3.72495  -2
 -12   6   6 51.2091 3.72495   1
  11   6   1 40.2991 5.16467  -2
 -11   6   6 40.2991 5.16467   1
  10   6   2 67.8090 5.43194  -2
 -10   6   6 67.8090 5.43194   1
   9   6   2 236.564 8.12952  -2
  -9   6   6 236.564 8.12952   1
   8   6   3 69.2596 3.55429  -2
  -8   6   6 69.2596 3.55429   1
   7   6   3 15.4267 1.70313  -2
  -7   6   6 15.4267 1.70313   1
  -6   6   6 12.0037 2.47980   2
  -6   6   6 6.85191 1.94261   1
   6   6   3 12.9862 3.87019  -2
  -6   6   6 12.9862 3.87019   1
   5   6   4 167.527 5.16954  -2
  -5   6   6 167.527 5.16954   1
   4   6   4 75.3468 3.28948  -2
  -4   6   6 75.3468 3.28948   1
   3   6   5 93.7190 3.37366  -2
  -3   6   6 93.7190 3.37366   1
   2   6   5 25.5452 1.65262  -2
  -2   6   6 25.5452 1.65262   1
  -1   6   6 100.293 3.89018   2
  -1   6   6 73.1322 3.64872   1
   1   6   6 144.062 6.59563  -2
  -1   6   6 144.062 6.59563   1
   0   6   6 72.0761 2.57638  -2
   0   6   6 72.0761 2.57638   1
   1   6   6 67.9330 3.33435   2
   1   6   6 54.4206 2.60939   1
  -1   6   6 157.996 8.20180  -2
   1   6   6 157.996 8.20180   1
  -2   6   7 56.0622 2.73399  -2
   2   6   6 56.0622 2.73399   1
  -3   6   7 25.2177 2.38322  -2
   3   6   6 25.2177 2.38322   1
  -4   6   8 136.510 5.19587  -2
   4   6   6 136.510 5.19587   1
  -5   6   8 238.475 8.84021  -2
   5   6   6 238.475 8.84021   1
   6   6   6 14.2090 1.86831   1
   6   6   6 30.7479 4.93174   2
  -6   6   9 37.2470 27.3978  -2
   6   6   6 37.2470 27.3978   1
  -7   6   9 239.463 7.36075  -2
   7   6   6 239.463 7.36075   1
   8   6   6 0.93767 15.2833   1
  -8   6   9 40.0782 2.78716  -2
   8   6   6 40.0782 2.78716   1
  -9   6  10 96.2556 5.29594  -2
   9   6   6 96.2556 5.29594   1
 -10   6  10 6.89046 3.47023  -2
  10   6   6 6.89046 3.47023   1
 -11   6  11 60.5687 5.99126  -2
  11   6   6 60.5687 5.99126   1
 -12   6  11 94.2410 5.71487  -2
  12   6   6 94.2410 5.71487   1
 -13   6  11 -0.4905 11.7344  -2
  13   6   6 -0.4905 11.7344   1
 -14   6  12 3.74003 6.17521  -2
  14   6   6 3.74003 6.17521   1
  14   7   0 10.4029 4.42058  -2
 -14   7   6 10.4029 4.42058   1
  12   7   1 196.113 7.71113  -2
 -12   7   6 196.113 7.71113   1
  11   7   1 61.9480 8.22238  -2
 -11   7   6 61.9480 8.22238   1
  10   7   2 63.8616 3.43797  -2
 -10   7   6 63.8616 3.43797   1
   9   7   2 78.5228 4.17283  -2
  -9   7   6 78.5228 4.17283   1
   8   7   3 314.200 13.1993  -2
  -8   7   6 314.200 13.1993   1
   7   7   3 592.594 16.0214  -2
  -7   7   6 592.594 16.0214   1
   6   7   3 394.843 26.1346  -2
  -6   7   6 394.843 26.1346   1
  -6   7   6 254.386 19.1102   2
   6   7   4 233.165 24.0321  -2
  -6   7   6 233.165 24.0321   1
  -6   7   6 225.994 14.9810   1
   5   7   4 128.414 4.91405  -2
  -5   7   6 128.414 4.91405   1
   4   7   4 318.291 8.43797  -2
  -4   7   6 318.291 8.43797   1
   3   7   5 992.638 25.7929  -2
  -3   7   6 992.638 25.7929   1
   2   7   5 1556.91 38.8946  -2
  -2   7   6 1556.91 38.8946   1
  -1   7   6 262.121 10.6731   1
   1   7   6 291.575 9.50093  -2
  -1   7   6 291.575 9.50093   1
  -1   7   6 315.735 12.6797   2
   0   7   6 444.768 10.7139  -2
   0   7   6 444.768 10.7139   1
   1   7   6 9.10356 1.27892   1
   1   7   6 4.90526 1.87303   2
  -1   7   6 320.879 14.8633  -2
   1   7   6 320.879 14.8633   1
  -2   7   7 1160.75 28.4394  -2
   2   7   6 1160.75 28.4394   1
  -3   7   7 136.974 4.67365  -2
   3   7   6 136.974 4.67365   1
  -4   7   8 299.993 11.5522  -2
   4   7   6 299.993 11.5522   1
  -5   7   8 217.630 10.7611  -2
   5   7   6 217.630 10.7611   1
  -6   7   9 343.237 27.6741  -2
   6   7   6 343.237 27.6741   1
   6   7   6 145.221 14.4660   1
   6   7   6 216.367 21.9733   2
  -7   7   9 34.3540 2.22145  -2
   7   7   6 34.3540 2.22145   1
  -8   7   9 88.5979 4.68029  -2
   8   7   6 88.5979 4.68029   1
   8   7   6 10.9359 16.2324   1
  -9   7  10 7.75956 3.71442  -2
   9   7   6 7.75956 3.71442   1
 -10   7  10 118.908 5.72648  -2
  10   7   6 118.908 5.72648   1
 -11   7  11 91.9918 8.84304  -2
  11   7   6 91.9918 8.84304   1
 -12   7  11 88.8921 5.32307  -2
  12   7   6 88.8921 5.32307   1
 -13   7  11 15.5956 11.6461  -2
  13   7   6 15.5956 11.6461   1
  14   8   0 28.1438 5.70048  -2
 -14   8   6 28.1438 5.70048   1
  12   8   1 65.9634 5.35497  -2
 -12   8   6 65.9634 5.35497   1
  11   8   1 51.5272 6.44011  -2
 -11   8   6 51.5272 6.44011   1
  10   8   2 26.4266 3.92969  -2
 -10   8   6 26.4266 3.92969   1
   9   8   2 56.5314 3.61155  -2
  -9   8   6 56.5314 3.61155   1
   8   8   3 40.0224 4.51919  -2
  -8   8   6 40.0224 4.51919   1
  -8   8   6 12.4757 13.3901   2
   7   8   3 141.871 5.05571  -2
  -7   8   6 141.871 5.05571   1
   6   8   3 433.808 23.6128  -2
  -6   8   6 433.808 23.6128   1
  -6   8   6 56.9494 9.18928   2
  -6   8   6 43.1797 14.6776   1
   5   8   4 205.927 7.63213  -2
  -5   8   6 205.927 7.63213   1
   4   8   4 56.2557 3.80650  -2
  -4   8   6 56.2557 3.80650   1
   3   8   5 473.781 13.7816  -2
  -3   8   6 473.781 13.7816   1
   2   8   5 538.664 14.6158  -2
  -2   8   6 538.664 14.6158   1
  -1   8   6 27.2125 2.83389   2
   1   8   6 457.115 15.2323  -2
  -1   8   6 457.115 15.2323   1
  -1   8   6 15.5912 1.78118   1
   0   8   6 82.7199 2.72433  -2
   0   8   6 82.7199 2.72433   1
   1   8   6 366.558 16.6484   1
  -1   8   6 364.781 11.8789  -2
   1   8   6 364.781 11.8789   1
   1   8   6 474.282 19.8613   2
  -2   8   7 93.7799 4.77085  -2
   2   8   6 93.7799 4.77085   1
  -3   8   7 311.648 14.1461  -2
   3   8   6 311.648 14.1461   1
  -4   8   8 317.609 14.7058  -2
   4   8   6 317.609 14.7058   1
  -5   8   8 252.109 8.85926  -2
   5   8   6 252.109 8.85926   1
   6   8   6 9.40649 7.53892   1
   6   8   6 43.4232 9.29006   2
  -6   8   9 52.2531 30.2364  -2
   6   8   6 52.2531 30.2364   1
  -7   8   9 209.150 7.75851  -2
   7   8   6 209.150 7.75851   1
  -8   8   9 148.352 8.09952  -2
   8   8   6 148.352 8.09952   1
  -9   8  10 80.5531 5.69422  -2
   9   8   6 80.5531 5.69422   1
 -10   8  10 337.263 16.6852  -2
  10   8   6 337.263 16.6852   1
 -11   8  11 41.8137 6.31893  -2
  11   8   6 41.8137 6.31893   1
 -12   8  11 6.28132 3.65031  -2
  12   8   6 6.28132 3.65031   1
 -13   8  11 50.0412 14.2504  -2
  13   8   6 50.0412 14.2504   1
  13   9   1 26.7813 12.9188  -2
 -13   9   6 26.7813 12.9188   1
  12   9   1 109.175 6.59620  -2
 -12   9   6 109.175 6.59620   1
  11   9   1 53.1478 6.75962  -2
 -11   9   6 53.1478 6.75962   1
  10   9   2 13.7831 3.90845  -2
 -10   9   6 13.7831 3.90845   1
   9   9   2 19.0880 2.66254  -2
  -9   9   6 19.0880 2.66254   1
   8   9   3 103.827 5.70431  -2
  -8   9   6 103.827 5.70431   1
  -8   9   6 31.8640 14.0473   1
   7   9   3 198.534 7.22002  -2
  -7   9   6 198.534 7.22002   1
   6   9   3 112.123 9.37323  -2
  -6   9   6 112.123 9.37323   1
  -6   9   6 21.6144 3.20404   2
   5   9   4 49.2152 3.33706  -2
  -5   9   6 49.2152 3.33706   1
   4   9   4 159.628 6.48013  -2
  -4   9   6 159.628 6.48013   1
   3   9   5 212.796 8.02778  -2
  -3   9   6 212.796 8.02778   1
   2   9   5 188.560 7.54748  -2
  -2   9   6 188.560 7.54748   1
  -1   9   6 11.5822 2.60450   2
   1   9   6 35.2419 5.70199  -2
  -1   9   6 35.2419 5.70199   1
  -1   9   6 5.29077 1.63951   1
   0   9   6 852.238 20.5432  -2
   0   9   6 852.238 20.5432   1
   1   9   6 30.1578 4.52745   2
   1   9   6 18.3060 2.91832   1
  -1   9   6 13.9486 3.82410  -2
   1   9   6 13.9486 3.82410   1
  -2   9   7 42.5712 5.44069  -2
   2   9   6 42.5712 5.44069   1
   2   9   6 40.6719 4.38072   2
  -3   9   7 139.463 7.45591  -2
   3   9   6 139.463 7.45591   1
  -4   9   8 285.181 8.97917  -2
   4   9   6 285.181 8.97917   1
  -5   9   8 111.542 5.10120  -2
   5   9   6 111.542 5.10120   1
  -6   9   9 8.11821 26.4388  -2
   6   9   6 8.11821 26.4388   1
   6   9   6 10.6853 5.53085   1
  -6   9   8 67.0326 13.6457  -2
   6   9   6 67.0326 13.6457   1
  -7   9   9 82.8466 4.63117  -2
   7   9   6 82.8466 4.63117   1
  -8   9   9 124.694 9.40908  -2
   8   9   6 124.694 9.40908   1
  -9   9  10 101.511 7.42432  -2
   9   9   6 101.511 7.42432   1
 -10   9  10 6.78915 4.21776  -2
  10   9   6 6.78915 4.21776   1
 -11   9  11 89.1463 8.01425  -2
  11   9   6 89.1463 8.01425   1
 -12   9  11 12.3487 3.94747  -2
  12   9   6 12.3487 3.94747   1
  13  10   1 10.8396 13.8008  -2
 -13  10   6 10.8396 13.8008   1
  12  10   1 13.9578 3.46208  -2
 -12  10   6 13.9578 3.46208   1
  11  10   1 14.0830 8.00012  -2
 -11  10   6 14.0830 8.00012   1
  10  10   2 184.326 7.79483  -2
 -10  10   6 184.326 7.79483   1
   9  10   2 183.863 7.03400  -2
  -9  10   6 183.863 7.03400   1
   8  10   3 189.444 10.0927  -2
  -8  10   6 189.444 10.0927   1
   7  10   3 10.0327 2.26334  -2
  -7  10   6 10.0327 2.26334   1
  -6  10   6 5.73385 1.61155   2
   6  10   3 130.026 10.4465  -2
  -6  10   6 130.026 10.4465   1
   5  10   4 366.971 12.6765  -2
  -5  10   6 366.971 12.6765   1
   4  10   4 409.115 16.1763  -2
  -4  10   6 409.115 16.1763   1
   3  10   5 157.288 6.55961  -2
  -3  10   6 157.288 6.55961   1
  -3  10   6 145.026 12.4446   2
   2  10   5 389.765 13.1137  -2
  -2  10   6 389.765 13.1137   1
  -1  10   6 251.224 16.6575   1
  -1  10   6 265.458 21.4162   2
   1  10   6 458.359 18.3864  -2
  -1  10   6 458.359 18.3864   1
   0  10   6 549.665 13.3640  -2
   0  10   6 549.665 13.3640   1
  -1  10   6 494.579 24.1858  -2
   1  10   6 494.579 24.1858   1
   1  10   6 194.208 15.0996   1
   1  10   6 225.417 16.2259   2
  -2  10   7 425.762 14.2542  -2
   2  10   6 425.762 14.2542   1
  -3  10   7 446.014 14.9110  -2
   3  10   6 446.014 14.9110   1
  -4  10   8 205.104 8.82542  -2
   4  10   6 205.104 8.82542   1
  -5  10   8 51.9431 3.52941  -2
   5  10   6 51.9431 3.52941   1
   6  10   6 -7.8113 6.32084   1
  -6  10   9 137.334 37.0275  -2
   6  10   6 137.334 37.0275   1
  -7  10   9 123.628 5.24694  -2
   7  10   6 123.628 5.24694   1
  -8  10   9 62.1313 7.59270  -2
   8  10   6 62.1313 7.59270   1
  -9  10  10 19.8018 4.13301  -2
   9  10   6 19.8018 4.13301   1
 -10  10  10 18.1433 4.74476  -2
  10  10   6 18.1433 4.74476   1
 -11  10  11 -11.155 6.58077  -2
  11  10   6 -11.155 6.58077   1
 -12  10  11 7.03726 3.88912  -2
  12  10   6 7.03726 3.88912   1
  12  11   1 11.3678 4.11715  -2
 -12  11   6 11.3678 4.11715   1
  11  11   1 45.2151 7.43965  -2
 -11  11   6 45.2151 7.43965   1
  10  11   2 52.6889 4.49654  -2
 -10  11   6 52.6889 4.49654   1
   9  11   2 14.6506 3.56526  -2
  -9  11   6 14.6506 3.56526   1
   8  11   3 22.4945 5.23232  -2
  -8  11   6 22.4945 5.23232   1
   7  11   3 -0.4713 2.29789  -2
  -7  11   6 -0.4713 2.29789   1
   6  11   3 283.647 70.4759  -2
  -6  11   6 283.647 70.4759   1
  -6  11   6 259.399 26.6046   2
   5  11   4 107.043 5.00393  -2
  -5  11   6 107.043 5.00393   1
   4  11   4 85.0841 6.23624  -2
  -4  11   6 85.0841 6.23624   1
   3  11   5 81.7304 4.36702  -2
  -3  11   6 81.7304 4.36702   1
  -3  11   6 31.8986 2.52905   2
   2  11   5 46.7002 3.87423  -2
  -2  11   6 46.7002 3.87423   1
   1  11   6 310.946 10.6182  -2
  -1  11   6 310.946 10.6182   1
  -1  11   6 50.2983 34.9844   1
   0  11   6 35.6538 2.12970  -2
   0  11   6 35.6538 2.12970   1
  -1  11   6 285.438 13.6159  -2
   1  11   6 285.438 13.6159   1
   1  11   6 249.686 64.6004   2
  -2  11   7 151.517 5.67514  -2
   2  11   6 151.517 5.67514   1
  -3  11   7 87.2870 5.83229  -2
   3  11   6 87.2870 5.83229   1
  -4  11   8 81.8033 5.07966  -2
   4  11   6 81.8033 5.07966   1
  -5  11   8 362.912 12.8352  -2
   5  11   6 362.912 12.8352   1
  -6  11   9 171.150 67.3307  -2
   6  11   6 171.150 67.3307   1
   6  11   6 0.40656 6.40188   1
  -7  11   9 79.1001 5.58640  -2
   7  11   6 79.1001 5.58640   1
  -8  11   9 238.280 12.0850  -2
   8  11   6 238.280 12.0850   1
  -9  11  10 145.849 8.86823  -2
   9  11   6 145.849 8.86823   1
 -10  11  10 25.3785 4.66764  -2
  10  11   6 25.3785 4.66764   1
 -11  11  11 30.4189 7.10654  -2
  11  11   6 30.4189 7.10654   1
  10  12   2 98.9482 7.22314  -2
 -10  12   6 98.9482 7.22314   1
   9  12   2 45.7980 4.73605  -2
  -9  12   6 45.7980 4.73605   1
   8  12   3 18.1083 8.16387  -2
  -8  12   6 18.1083 8.16387   1
   7  12   3 7.70108 2.44044  -2
  -7  12   6 7.70108 2.44044   1
   6  12   3 30.7469 14.4937  -2
   6  12   4 30.7469 14.4937  -2
  -6  12   6 30.7469 14.4937   1
   5  12   4 59.8271 3.63304  -2
  -5  12   6 59.8271 3.63304   1
   4  12   4 408.833 14.6207  -2
  -4  12   6 408.833 14.6207   1
   3  12   5 21.4617 4.50672  -2
  -3  12   6 21.4617 4.50672   1
  -3  12   6 17.1737 1.95465   2
   2  12   5 51.2147 3.32795  -2
  -2  12   6 51.2147 3.32795   1
   1  12   6 60.2404 4.25503  -2
  -1  12   6 60.2404 4.25503   1
  -1  12   6 25.9860 19.1464   1
  -1  12   6 29.7451 15.9826   2
   0  12   6 239.349 7.33088  -2
   0  12   6 239.349 7.33088   1
  -1  12   6 69.4352 7.40355  -2
   1  12   6 69.4352 7.40355   1
   1  12   6 34.3678 18.7826   2
   1  12   6 9.03189 12.7270   1
  -2  12   7 142.903 6.24824  -2
   2  12   6 142.903 6.24824   1
   2  12   6 109.684 10.2447   2
  -3  12   7 45.4244 4.63450  -2
   3  12   6 45.4244 4.63450   1
  -4  12   8 71.8103 4.94952  -2
   4  12   6 71.8103 4.94952   1
   4  12   6 55.7714 6.20546   2
  -5  12   8 8.16933 2.96070  -2
   5  12   6 8.16933 2.96070   1
  -6  12   8 8.84085 9.09143  -2
   6  12   6 8.84085 9.09143   1
  -7  12   9 59.7566 4.38328  -2
   7  12   6 59.7566 4.38328   1
  -8  12   9 26.1240 6.45337  -2
   8  12   6 26.1240 6.45337   1
  -9  12  10 11.3077 3.88177  -2
   9  12   6 11.3077 3.88177   1
 -10  12  10 0.62934 4.10819  -2
  10  12   6 0.62934 4.10819   1
  11  12   6 10.5297 3.47062   1
  11  12   6 16.3324 5.54885   2
  10  13   2 11.6399 5.90367  -2
 -10  13   6 11.6399 5.90367   1
   9  13   2 2.06690 4.26508  -2
  -9  13   6 2.06690 4.26508   1
   8  13   3 96.7610 9.27967  -2
  -8  13   6 96.7610 9.27967   1
   7  13   3 50.2903 3.52004  -2
  -7  13   6 50.2903 3.52004   1
   5  13   4 -2.6030 2.68914  -2
  -5  13   6 -2.6030 2.68914   1
   4  13   4 104.224 6.66638  -2
  -4  13   6 104.224 6.66638   1
   3  13   5 12.4951 4.57159  -2
  -3  13   6 12.4951 4.57159   1
   2  13   5 123.680 5.59341  -2
  -2  13   6 123.680 5.59341   1
   1  13   6 56.7703 7.21696  -2
  -1  13   6 56.7703 7.21696   1
  -1  13   6 8.61753 2.65420   1
  -1  13   6 19.5549 12.3148   2
   0  13   6 132.606 4.69441  -2
   0  13   6 132.606 4.69441   1
   1  13   6 35.6955 5.34486   2
  -1  13   6 31.5915 7.18513  -2
   1  13   6 31.5915 7.18513   1
   1  13   6 35.6379 15.7689   1
  -2  13   7 99.8859 5.92854  -2
   2  13   6 99.8859 5.92854   1
  -3  13   7 120.072 7.01783  -2
   3  13   6 120.072 7.01783   1
  -4  13   8 69.9890 6.38479  -2
   4  13   6 69.9890 6.38479   1
  -5  13   8 13.4232 3.25510  -2
   5  13   6 13.4232 3.25510   1
  -6  13   9 74.3936 17.2811  -2
   6  13   6 74.3936 17.2811   1
  -6  13   8 59.6758 11.8526  -2
   6  13   6 59.6758 11.8526   1
  -7  13   9 46.0152 3.74918  -2
   7  13   6 46.0152 3.74918   1
  -8  13   9 52.3666 5.79476  -2
   8  13   6 52.3666 5.79476   1
  -9  13  10 2.36914 3.84242  -2
   9  13   6 2.36914 3.84242   1
 -10  13  10 71.7124 6.23616  -2
  10  13   6 71.7124 6.23616   1
   9  14   2 8.83621 4.68485  -2
  -9  14   6 8.83621 4.68485   1
   8  14   3 -3.9907 9.48233  -2
  -8  14   6 -3.9907 9.48233   1
   7  14   3 10.9470 2.57151  -2
  -7  14   6 10.9470 2.57151   1
   5  14   4 55.0248 4.31779  -2
  -5  14   6 55.0248 4.31779   1
   4  14   4 5.96333 3.87870  -2
  -4  14   6 5.96333 3.87870   1
   3  14   5 133.827 6.32989  -2
  -3  14   6 133.827 6.32989   1
   2  14   5 162.162 10.2359  -2
  -2  14   6 162.162 10.2359   1
   1  14   6 126.620 20.3690  -2
  -1  14   6 126.620 20.3690   1
   0  14   6 26.5327 3.06218  -2
   0  14   6 26.5327 3.06218   1
  -1  14   6 113.441 19.2548  -2
   1  14   6 113.441 19.2548   1
  -2  14   7 145.898 7.94870  -2
   2  14   6 145.898 7.94870   1
  -3  14   7 47.3047 4.98485  -2
   3  14   6 47.3047 4.98485   1
  -4  14   8 117.991 7.21208  -2
   4  14   6 117.991 7.21208   1
  -5  14   8 -0.3382 3.30647  -2
   5  14   6 -0.3382 3.30647   1
  -6  14   9 92.7670 18.1866  -2
   6  14   6 92.7670 18.1866   1
  -7  14   9 36.0943 3.70244  -2
   7  14   6 36.0943 3.70244   1
  -8  14   9 21.9264 5.29458  -2
   8  14   6 21.9264 5.29458   1
  -9  14  10 4.28477 7.07006  -2
   9  14   6 4.28477 7.07006   1
   8  15   3 74.7636 16.6372  -2
  -8  15   6 74.7636 16.6372   1
   7  15   3 42.8049 4.12605  -2
  -7  15   6 42.8049 4.12605   1
   5  15   4 4.09744 3.19939  -2
  -5  15   6 4.09744 3.19939   1
   4  15   4 11.9643 4.95170  -2
  -4  15   6 11.9643 4.95170   1
   3  15   5 5.21616 3.96918  -2
  -3  15   6 5.21616 3.96918   1
   2  15   5 48.1773 3.72096  -2
  -2  15   6 48.1773 3.72096   1
   1  15   6 2.57123 9.29182  -2
  -1  15   6 2.57123 9.29182   1
   0  15   6 3.92171 2.45355  -2
   0  15   6 3.92171 2.45355   1
  -1  15   6 11.9611 8.71373  -2
   1  15   6 11.9611 8.71373   1
  -2  15   7 21.8022 4.36462  -2
   2  15   6 21.8022 4.36462   1
  -3  15   7 25.7537 4.79579  -2
   3  15   6 25.7537 4.79579   1
  -4  15   8 5.66506 5.42130  -2
   4  15   6 5.66506 5.42130   1
  -5  15   8 36.5084 4.36723  -2
   5  15   6 36.5084 4.36723   1
  -6  15   8 29.6871 14.4252  -2
   6  15   6 29.6871 14.4252   1
  -7  15   9 3.18591 3.57118  -2
   7  15   6 3.18591 3.57118   1
   7  16   3 7.60573 3.09224  -2
  -7  16   6 7.60573 3.09224   1
   5  16   4 82.7059 5.97164  -2
  -5  16   6 82.7059 5.97164   1
   4  16   4 18.6460 5.45050  -2
  -4  16   6 18.6460 5.45050   1
   3  16   5 29.5804 4.47268  -2
  -3  16   6 29.5804 4.47268   1
   2  16   5 42.7847 4.34616  -2
  -2  16   6 42.7847 4.34616   1
   1  16   6 93.7069 19.4419  -2
  -1  16   6 93.7069 19.4419   1
   0  16   6 38.7473 3.54633  -2
   0  16   6 38.7473 3.54633   1
  -1  16   6 171.118 23.2987  -2
   1  16   6 171.118 23.2987   1
  -2  16   7 86.4536 5.72591  -2
   2  16   6 86.4536 5.72591   1
  -3  16   7 107.367 6.32646  -2
   3  16   6 107.367 6.32646   1
  -4  16   8 29.7778 6.30156  -2
   4  16   6 29.7778 6.30156   1
  -5  16   8 23.8452 4.38819  -2
   5  16   6 23.8452 4.38819   1
  -6  16   9 110.198 20.9273  -2
  -6  16   8 110.198 20.9273  -2
   6  16   6 110.198 20.9273   1
   4  17   4 23.2914 6.90574  -2
  -4  17   6 23.2914 6.90574   1
   3  17   5 70.7242 6.06330  -2
  -3  17   6 70.7242 6.06330   1
   2  17   5 26.4221 4.37900  -2
  -2  17   6 26.4221 4.37900   1
   1  17   6 45.2101 11.2290  -2
  -1  17   6 45.2101 11.2290   1
   0  17   6 47.8538 3.76851  -2
   0  17   6 47.8538 3.76851   1
  -1  17   6 73.8327 15.8387  -2
   1  17   6 73.8327 15.8387   1
  -2  17   7 37.7198 4.31009  -2
   2  17   6 37.7198 4.31009   1
  -3  17   7 -5.9897 5.53587  -2
   3  17   6 -5.9897 5.53587   1
   4  17   6 23.2361 6.50082   2
   4  17   6 9.46014 4.80674   1
  15   0   1 21.5931 9.54994  -2
 -15   0   7 21.5931 9.54994   1
  14   0   1 5.47811 6.13414  -2
 -14   0   7 5.47811 6.13414   1
  12   0   2 390.088 18.1865  -2
 -12   0   7 390.088 18.1865   1
  11   0   2 71.5719 5.98128  -2
 -11   0   7 71.5719 5.98128   1
  10   0   3 -5.3158 1.99234  -2
 -10   0   7 -5.3158 1.99234   1
   9   0   3 173.935 8.59039  -2
  -9   0   7 173.935 8.59039   1
  -8   0   7 3.21111 1.96336   1
   8   0   4 382.759 18.2121  -2
  -8   0   7 382.759 18.2121   1
   7   0   4 99.2066 4.24466  -2
  -7   0   7 99.2066 4.24466   1
  -6   0   7 -0.2697 1.08844   1
  -6   0   7 5.72541 1.68320   2
   6   0   4 99.2472 36.0242  -2
  -6   0   7 99.2472 36.0242   1
   5   0   5 228.471 8.81414  -2
  -5   0   7 228.471 8.81414   1
   4   0   5 1.09541 1.67668  -2
  -4   0   7 1.09541 1.67668   1
  -4   0   7 2.12545 2.64682   1
  -4   0   7 1.23811 2.57350   2
   3   0   6 266.436 9.33735  -2
  -3   0   7 266.436 9.33735   1
  -3   0   7 336.938 27.3595   1
   2   0   6 76.4397 2.84370  -2
  -2   0   7 76.4397 2.84370   1
   1   0   7 202.448 9.67989  -2
  -1   0   7 202.448 9.67989   1
  -1   0   7 101.597 6.55457   1
  -1   0   7 111.744 30.0353   2
   0   0   7 2.44891 0.94039  -2
   0   0   7 2.44891 0.94039   1
  -1   0   7 209.078 6.86642  -2
   1   0   7 209.078 6.86642   1
   1   0   7 114.283 7.30148   2
   1   0   7 91.4559 27.1644   1
  -2   0   8 529.204 16.2155  -2
   2   0   7 529.204 16.2155   1
  -3   0   8 24.9540 2.60446  -2
   3   0   7 24.9540 2.60446   1
   4   0   7 -0.8495 2.45998   2
  -4   0   9 -0.8835 4.04382  -2
   4   0   7 -0.8835 4.04382   1
  -5   0   9 428.284 14.5938  -2
   5   0   7 428.284 14.5938   1
  -6   0  10 129.893 16.4683  -2
   6   0   7 129.893 16.4683   1
   6   0   7 2.81032 14.2211   1
   6   0   7 -1.0439 2.47581   2
  -7   0  10 125.470 5.62093  -2
   7   0   7 125.470 5.62093   1
  -8   0  10 216.665 14.5607  -2
   8   0   7 216.665 14.5607   1
  -9   0  11 70.7255 5.08628  -2
   9   0   7 70.7255 5.08628   1
 -10   0  11 -4.6401 1.71495  -2
  10   0   7 -4.6401 1.71495   1
 -11   0  12 54.1978 7.81016  -2
  11   0   7 54.1978 7.81016   1
 -12   0  12 76.2708 7.17203  -2
  12   0   7 76.2708 7.17203   1
 -13   0  12 16.7507 17.1681  -2
  13   0   7 16.7507 17.1681   1
 -14   0  13 -4.8414 4.97187  -2
  14   0   7 -4.8414 4.97187   1
  15   1   1 39.8152 7.33828  -2
 -15   1   7 39.8152 7.33828   1
  14   1   1 54.6611 5.57187  -2
 -14   1   7 54.6611 5.57187   1
  12   1   2 179.424 9.02989  -2
 -12   1   7 179.424 9.02989   1
  11   1   2 39.8575 2.61091  -2
 -11   1   7 39.8575 2.61091   1
  10   1   3 63.0149 2.97568  -2
 -10   1   7 63.0149 2.97568   1
   9   1   3 366.763 12.5687  -2
  -9   1   7 366.763 12.5687   1
   8   1   4 501.353 21.6729  -2
  -8   1   7 501.353 21.6729   1
  -8   1   7 9.94711 3.24152   1
  -8   1   7 9.53060 12.2340   2
   7   1   4 802.081 20.4975  -2
  -7   1   7 802.081 20.4975   1
  -6   1   7 234.440 8.55974   1
  -6   1   7 280.604 12.4306   2
   6   1   4 1042.12 49.7966  -2
  -6   1   7 1042.12 49.7966   1
   5   1   5 621.775 18.3533  -2
  -5   1   7 621.775 18.3533   1
   4   1   5 135.120 5.56756  -2
  -4   1   7 135.120 5.56756   1
  -4   1   7 115.726 5.72753   1
   3   1   6 3228.91 80.8382  -2
  -3   1   7 3228.91 80.8382   1
  -3   1   7 1076.88 84.0780   1
   2   1   6 3645.46 70.7816  -2
  -2   1   7 3645.46 70.7816   1
  -1   1   7 762.139 28.3471   1
   1   1   7 984.574 25.3334  -2
  -1   1   7 984.574 25.3334   1
  -1   1   7 929.007 36.3919   2
   0   1   7 144.922 2.96847  -2
   0   1   7 144.922 2.96847   1
   1   1   7 159.918 6.97139   1
   1   1   7 164.647 8.47717   2
  -1   1   7 1065.70 23.2930  -2
   1   1   7 1065.70 23.2930   1
  -2   1   8 2689.90 57.1336  -2
   2   1   7 2689.90 57.1336   1
  -3   1   8 1629.47 40.3986  -2
   3   1   7 1629.47 40.3986   1
  -4   1   9 276.173 7.34982  -2
   4   1   7 276.173 7.34982   1
  -5   1   9 330.350 9.32181  -2
   5   1   7 330.350 9.32181   1
  -6   1  10 236.877 10.1227  -2
   6   1   7 236.877 10.1227   1
   6   1   7 218.379 9.03740   2
   6   1   7 181.461 48.1659   1
  -6   1   9 871.205 74.1246  -2
   6   1   7 871.205 74.1246   1
  -7   1  10 407.193 10.9452  -2
   7   1   7 407.193 10.9452   1
  -8   1  10 0.47704 5.15828  -2
   8   1   7 0.47704 5.15828   1
  -9   1  11 72.2229 3.74024  -2
   9   1   7 72.2229 3.74024   1
 -10   1  11 63.8517 4.51055  -2
  10   1   7 63.8517 4.51055   1
 -11   1  12 34.1067 3.45352  -2
  11   1   7 34.1067 3.45352   1
 -12   1  12 9.08986 3.66382  -2
  12   1   7 9.08986 3.66382   1
 -14   1  13 26.1959 4.35494  -2
  14   1   7 26.1959 4.35494   1
  15   2   1 2.43061 7.61970  -2
 -15   2   7 2.43061 7.61970   1
  14   2   1 22.7474 4.44148  -2
 -14   2   7 22.7474 4.44148   1
  12   2   2 86.9344 5.16543  -2
 -12   2   7 86.9344 5.16543   1
  11   2   2 65.0897 5.61125  -2
 -11   2   7 65.0897 5.61125   1
  10   2   3 204.123 7.19539  -2
 -10   2   7 204.123 7.19539   1
   9   2   3 421.753 15.8989  -2
  -9   2   7 421.753 15.8989   1
   8   2   4 204.447 9.10381  -2
  -8   2   7 204.447 9.10381   1
  -8   2   7 168.395 49.0918   2
  -8   2   7 218.019 19.8483   1
   7   2   4 221.365 6.14309  -2
  -7   2   7 221.365 6.14309   1
  -6   2   7 384.017 14.8195   2
   6   2   4 383.916 18.5576  -2
  -6   2   7 383.916 18.5576   1
  -6   2   7 333.402 11.7714   1
   5   2   5 1183.71 32.9284  -2
  -5   2   7 1183.71 32.9284   1
  -4   2   7 554.274 23.2430   1
   4   2   5 988.584 27.2133  -2
  -4   2   7 988.584 27.2133   1
  -4   2   7 716.044 60.0932   2
   3   2   6 158.304 4.58867  -2
  -3   2   7 158.304 4.58867   1
  -3   2   7 149.163 12.5802   1
   2   2   6 21.0415 1.19260  -2
  -2   2   7 21.0415 1.19260   1
  -1   2   7 222.321 8.25635   2
  -1   2   7 196.938 8.36699   1
   1   2   7 285.620 12.8187  -2
  -1   2   7 285.620 12.8187   1
   0   2   7 1476.88 27.4759  -2
   0   2   7 1476.88 27.4759   1
   1   2   7 84.2530 4.18238   1
   1   2   7 93.1572 4.37021   2
  -1   2   7 314.439 10.0671  -2
   1   2   7 314.439 10.0671   1
  -2   2   8 150.399 4.21267  -2
   2   2   7 150.399 4.21267   1
  -3   2   8 21.8853 1.64563  -2
   3   2   7 21.8853 1.64563   1
  -4   2   9 141.126 4.76924  -2
   4   2   7 141.126 4.76924   1
  -5   2   9 864.119 19.8388  -2
   5   2   7 864.119 19.8388   1
   6   2   7 122.314 5.52778   2
  -6   2  10 348.115 16.3932  -2
   6   2   7 348.115 16.3932   1
  -6   2   9 228.874 24.4170  -2
   6   2   7 228.874 24.4170   1
  -7   2  10 490.319 15.0783  -2
   7   2   7 490.319 15.0783   1
  -8   2  10 222.163 8.37302  -2
   8   2   7 222.163 8.37302   1
   8   2   7 -5.0011 15.7620   1
  -9   2  11 815.436 22.1827  -2
   9   2   7 815.436 22.1827   1
 -10   2  11 141.598 7.00879  -2
  10   2   7 141.598 7.00879   1
 -11   2  12 262.400 11.8124  -2
  11   2   7 262.400 11.8124   1
 -12   2  12 63.0760 4.36354  -2
  12   2   7 63.0760 4.36354   1
 -13   2  12 95.6243 20.9783  -2
  13   2   7 95.6243 20.9783   1
 -13   2  13 207.141 26.8650  -2
  13   2   7 207.141 26.8650   1
 -14   2  13 8.56456 4.04611  -2
  14   2   7 8.56456 4.04611   1
  15   3   1 13.6626 9.19873  -2
 -15   3   7 13.6626 9.19873   1
  14   3   1 61.2453 6.00456  -2
 -14   3   7 61.2453 6.00456   1
  12   3   2 4.32267 2.78464  -2
 -12   3   7 4.32267 2.78464   1
  11   3   2 97.4215 6.23918  -2
 -11   3   7 97.4215 6.23918   1
  10   3   3 71.3658 3.45621  -2
 -10   3   7 71.3658 3.45621   1
   9   3   3 44.2560 2.94457  -2
  -9   3   7 44.2560 2.94457   1
   8   3   4 20.1156 4.86529  -2
  -8   3   7 20.1156 4.86529   1
  -8   3   7 -15.138 14.2058   2
  -8   3   7 10.8675 4.43235   1
   7   3   4 25.6287 2.04696  -2
  -7   3   7 25.6287 2.04696   1
   6   3   4 12.4002 5.60492  -2
  -6   3   7 12.4002 5.60492   1
  -6   3   7 5.42996 1.63621   1
  -6   3   7 0.90096 1.12261   2
   5   3   5 31.7862 2.24137  -2
  -5   3   7 31.7862 2.24137   1
   4   3   5 118.200 4.10127  -2
  -4   3   7 118.200 4.10127   1
  -4   3   7 121.066 6.91372   1
  -4   3   7 144.058 41.9829   2
   3   3   6 126.430 3.48528  -2
  -3   3   7 126.430 3.48528   1
  -3   3   7 53.1274 7.36649   1
   2   3   6 34.5511 1.39093  -2
  -2   3   7 34.5511 1.39093   1
  -1   3   7 117.511 4.61131   1
   1   3   7 408.967 16.2204  -2
  -1   3   7 408.967 16.2204   1
  -1   3   7 142.954 7.15420   2
   0   3   7 85.9482 2.40075  -2
   0   3   7 85.9482 2.40075   1
   1   3   7 312.070 11.0504   2
   1   3   7 270.473 10.3332   1
  -1   3   7 396.462 12.6136  -2
   1   3   7 396.462 12.6136   1
  -2   3   8 45.4742 1.92916  -2
   2   3   7 45.4742 1.92916   1
  -3   3   8 21.1789 1.71731  -2
   3   3   7 21.1789 1.71731   1
  -4   3   9 383.901 10.3668  -2
   4   3   7 383.901 10.3668   1
  -5   3   9 895.982 20.8053  -2
   5   3   7 895.982 20.8053   1
   6   3   7 79.6423 6.51872   1
  -6   3  10 135.927 6.80979  -2
   6   3   7 135.927 6.80979   1
   6   3   7 96.8926 4.51829   2
  -7   3  10 56.2532 3.05930  -2
   7   3   7 56.2532 3.05930   1
  -8   3  10 89.7694 3.64810  -2
   8   3   7 89.7694 3.64810   1
  -9   3  11 234.906 8.84991  -2
   9   3   7 234.906 8.84991   1
 -10   3  11 116.480 5.47837  -2
  10   3   7 116.480 5.47837   1
 -11   3  12 29.6210 4.92457  -2
  11   3   7 29.6210 4.92457   1
 -12   3  12 56.3427 4.50658  -2
  12   3   7 56.3427 4.50658   1
 -13   3  13 -7.3062 14.2100  -2
  13   3   7 -7.3062 14.2100   1
 -13   3  12 13.6317 16.0120  -2
  13   3   7 13.6317 16.0120   1
 -14   3  13 70.0810 5.09029  -2
  14   3   7 70.0810 5.09029   1
  15   4   1 48.5806 15.0570  -2
 -15   4   7 48.5806 15.0570   1
  14   4   1 30.5329 5.18532  -2
 -14   4   7 30.5329 5.18532   1
  12   4   2 174.366 8.01152  -2
 -12   4   7 174.366 8.01152   1
  11   4   2 32.3696 4.58612  -2
 -11   4   7 32.3696 4.58612   1
  10   4   3 171.868 5.54519  -2
 -10   4   7 171.868 5.54519   1
   9   4   3 764.860 24.4759  -2
  -9   4   7 764.860 24.4759   1
   8   4   4 204.056 10.9203  -2
  -8   4   7 204.056 10.9203   1
  -8   4   7 167.505 47.9292   2
  -8   4   7 195.714 18.9558   1
   7   4   4 352.444 12.3502  -2
  -7   4   7 352.444 12.3502   1
  -6   4   7 99.3224 4.70772   1
  -6   4   7 127.882 7.31283   2
   6   4   4 192.704 18.4833  -2
  -6   4   7 192.704 18.4833   1
   5   4   5 2233.45 54.0422  -2
  -5   4   7 2233.45 54.0422   1
   4   4   5 80.8002 3.30472  -2
  -4   4   7 80.8002 3.30472   1
  -4   4   7 73.3910 6.35494   1
   3   4   6 15.0946 1.34578  -2
  -3   4   7 15.0946 1.34578   1
   2   4   6 36.4798 1.59723  -2
  -2   4   7 36.4798 1.59723   1
  -1   4   7 219.965 6.77644   1
   1   4   7 1494.90 55.2874  -2
  -1   4   7 1494.90 55.2874   1
  -1   4   7 281.378 9.93926   2
   0   4   7 47.8747 1.95503  -2
   0   4   7 47.8747 1.95503   1
   1   4   7 1061.15 34.5119   1
  -1   4   7 1403.34 41.0772  -2
   1   4   7 1403.34 41.0772   1
   1   4   7 1322.81 35.7892   2
  -2   4   8 40.1692 2.34929  -2
   2   4   7 40.1692 2.34929   1
  -3   4   8 182.247 6.25645  -2
   3   4   7 182.247 6.25645   1
  -4   4   9 327.001 9.11672  -2
   4   4   7 327.001 9.11672   1
  -5   4   9 926.696 22.1685  -2
   5   4   7 926.696 22.1685   1
   6   4   7 271.434 11.1721   2
  -6   4  10 279.287 18.8173  -2
   6   4   7 279.287 18.8173   1
   6   4   7 198.329 49.1481   1
  -7   4  10 34.8982 2.98648  -2
   7   4   7 34.8982 2.98648   1
  -8   4  10 257.716 9.15411  -2
   8   4   7 257.716 9.15411   1
   8   4   7 123.556 10.6232   1
  -9   4  11 90.0527 4.91688  -2
   9   4   7 90.0527 4.91688   1
 -10   4  11 27.3215 3.50653  -2
  10   4   7 27.3215 3.50653   1
 -11   4  12 13.7856 4.63346  -2
  11   4   7 13.7856 4.63346   1
 -12   4  12 4.19682 3.11535  -2
  12   4   7 4.19682 3.11535   1
  13   4   7 43.7927 11.0919   1
 -13   4  12 74.4259 19.5217  -2
  13   4   7 74.4259 19.5217   1
 -14   4  13 6.25573 4.68693  -2
  14   4   7 6.25573 4.68693   1
  15   5   1 35.9111 14.7816  -2
 -15   5   7 35.9111 14.7816   1
  14   5   1 19.3403 4.90431  -2
 -14   5   7 19.3403 4.90431   1
  12   5   2 56.8351 6.38072  -2
 -12   5   7 56.8351 6.38072   1
  11   5   2 142.765 9.79686  -2
 -11   5   7 142.765 9.79686   1
  10   5   3 276.355 8.77070  -2
 -10   5   7 276.355 8.77070   1
   9   5   3 217.964 8.22756  -2
  -9   5   7 217.964 8.22756   1
   8   5   4 263.907 9.51654  -2
  -8   5   7 263.907 9.51654   1
   7   5   4 195.082 6.91444  -2
  -7   5   7 195.082 6.91444   1
   6   5   4 106.696 7.18374  -2
  -6   5   7 106.696 7.18374   1
  -6   5   7 96.6172 7.35612   2
  -6   5   7 94.4466 4.34662   1
   5   5   5 23.6876 1.83363  -2
  -5   5   7 23.6876 1.83363   1
   4   5   5 68.4209 2.85569  -2
  -4   5   7 68.4209 2.85569   1
   3   5   6 133.900 4.01064  -2
  -3   5   7 133.900 4.01064   1
   2   5   6 130.120 3.57324  -2
  -2   5   7 130.120 3.57324   1
  -1   5   7 129.325 5.67485   1
   1   5   7 153.638 6.97169  -2
  -1   5   7 153.638 6.97169   1
  -1   5   7 170.809 7.42418   2
   0   5   7 20.1386 1.28514  -2
   0   5   7 20.1386 1.28514   1
  -1   5   7 178.619 6.10881  -2
   1   5   7 178.619 6.10881   1
   1   5   7 14.8670 1.27085   1
   1   5   7 22.9914 2.00052   2
  -2   5   8 1229.81 30.5402  -2
   2   5   7 1229.81 30.5402   1
  -3   5   8 865.049 21.8453  -2
   3   5   7 865.049 21.8453   1
  -4   5   9 275.598 8.14969  -2
   4   5   7 275.598 8.14969   1
  -5   5   9 15.9032 1.38935  -2
   5   5   7 15.9032 1.38935   1
   6   5   7 686.898 29.0036   2
  -6   5  10 630.724 30.1192  -2
   6   5   7 630.724 30.1192   1
   6   5   7 546.042 85.1511   1
  -7   5  10 574.590 16.6817  -2
   7   5   7 574.590 16.6817   1
  -8   5  10 239.035 9.78796  -2
   8   5   7 239.035 9.78796   1
  -9   5  11 112.168 5.73915  -2
   9   5   7 112.168 5.73915   1
 -10   5  11 31.3042 4.04513  -2
  10   5   7 31.3042 4.04513   1
 -11   5  12 156.827 11.2278  -2
  11   5   7 156.827 11.2278   1
 -12   5  12 109.387 6.46259  -2
  12   5   7 109.387 6.46259   1
 -13   5  12 3.03618 16.5338  -2
  13   5   7 3.03618 16.5338   1
  13   5   7 6.98791 7.97271   1
 -14   5  13 13.6119 6.36695  -2
  14   5   7 13.6119 6.36695   1
  14   6   1 18.3286 4.51558  -2
 -14   6   7 18.3286 4.51558   1
  12   6   2 7.24781 3.25411  -2
 -12   6   7 7.24781 3.25411   1
  11   6   2 15.5155 4.97550  -2
 -11   6   7 15.5155 4.97550   1
  10   6   3 19.9317 3.05257  -2
 -10   6   7 19.9317 3.05257   1
   9   6   3 18.5571 5.51610  -2
  -9   6   7 18.5571 5.51610   1
   8   6   4 165.857 7.88343  -2
  -8   6   7 165.857 7.88343   1
   7   6   4 18.6127 1.74261  -2
  -7   6   7 18.6127 1.74261   1
  -6   6   7 2.71910 1.56787   1
   6   6   4 18.3444 3.71157  -2
  -6   6   7 18.3444 3.71157   1
  -6   6   7 9.07452 4.35234   2
   5   6   5 82.4846 3.50535  -2
  -5   6   7 82.4846 3.50535   1
   4   6   5 173.818 5.55988  -2
  -4   6   7 173.818 5.55988   1
   3   6   6 28.6798 2.03318  -2
  -3   6   7 28.6798 2.03318   1
   2   6   6 61.3923 2.71244  -2
  -2   6   7 61.3923 2.71244   1
  -1   6   7 7.32601 0.75590   2
  -1   6   7 2.11213 1.22982   1
   1   6   7 49.2432 3.79731  -2
  -1   6   7 49.2432 3.79731   1
   0   6   7 688.347 16.6325  -2
   0   6   7 688.347 16.6325   1
   1   6   7 47.4691 2.91340   1
  -1   6   7 49.3979 4.63965  -2
   1   6   7 49.3979 4.63965   1
   1   6   7 61.5941 3.49090   2
  -2   6   8 125.611 4.46991  -2
   2   6   7 125.611 4.46991   1
  -3   6   8 48.8072 2.75666  -2
   3   6   7 48.8072 2.75666   1
  -4   6   9 259.498 8.19654  -2
   4   6   7 259.498 8.19654   1
  -5   6   9 5.55008 2.99410  -2
   5   6   7 5.55008 2.99410   1
  -6   6  10 157.322 17.2915  -2
   6   6   7 157.322 17.2915   1
   6   6   7 44.0762 2.97301   2
   6   6   7 23.7606 7.13814   1
  -7   6  10 199.199 6.88629  -2
   7   6   7 199.199 6.88629   1
  -8   6  10 83.2265 4.46011  -2
   8   6   7 83.2265 4.46011   1
  -9   6  11 17.5355 4.37582  -2
   9   6   7 17.5355 4.37582   1
 -10   6  11 17.3394 3.24753  -2
  10   6   7 17.3394 3.24753   1
 -11   6  12 20.6485 5.08264  -2
  11   6   7 20.6485 5.08264   1
 -12   6  12 39.7565 3.94908  -2
  12   6   7 39.7565 3.94908   1
 -13   6  12 2.08014 15.4198  -2
  13   6   7 2.08014 15.4198   1
  14   6   7 33.0249 12.9982   2
 -14   6  13 11.9467 5.44809  -2
  14   6   7 11.9467 5.44809   1
  14   6   7 9.19482 9.59287   1
  14   7   1 37.5232 6.40511  -2
 -14   7   7 37.5232 6.40511   1
  12   7   2 67.2513 4.41902  -2
 -12   7   7 67.2513 4.41902   1
  11   7   2 146.278 10.5369  -2
 -11   7   7 146.278 10.5369   1
  10   7   3 64.0357 4.50106  -2
 -10   7   7 64.0357 4.50106   1
   9   7   3 119.859 4.65497  -2
  -9   7   7 119.859 4.65497   1
   8   7   4 126.722 4.89069  -2
  -8   7   7 126.722 4.89069   1
   7   7   4 378.648 12.0902  -2
  -7   7   7 378.648 12.0902   1
  -6   7   7 661.806 32.4925   2
   6   7   4 628.471 59.8912  -2
  -6   7   7 628.471 59.8912   1
  -6   7   7 569.952 27.2895   1
   6   7   5 491.984 45.6989  -2
  -6   7   7 491.984 45.6989   1
   5   7   5 230.170 8.53480  -2
  -5   7   7 230.170 8.53480   1
   4   7   5 13.1346 2.27015  -2
  -4   7   7 13.1346 2.27015   1
   3   7   6 160.105 4.95142  -2
  -3   7   7 160.105 4.95142   1
   2   7   6 992.016 24.1849  -2
  -2   7   7 992.016 24.1849   1
  -1   7   7 98.0354 4.74065   2
  -1   7   7 71.2554 4.67852   1
   1   7   7 364.723 12.5178  -2
  -1   7   7 364.723 12.5178   1
   0   7   7 367.201 9.27219  -2
   0   7   7 367.201 9.27219   1
  -1   7   7 317.600 13.3209  -2
   1   7   7 317.600 13.3209   1
   1   7   7 249.406 11.3106   1
   1   7   7 302.365 13.6323   2
  -2   7   8 139.437 4.66040  -2
   2   7   7 139.437 4.66040   1
  -3   7   8 284.375 8.22419  -2
   3   7   7 284.375 8.22419   1
  -4   7   9 26.9678 5.03173  -2
   4   7   7 26.9678 5.03173   1
  -5   7   9 283.041 10.1485  -2
   5   7   7 283.041 10.1485   1
  -6   7  10 58.7114 13.8733  -2
   6   7   7 58.7114 13.8733   1
   6   7   7 90.9526 12.9337   2
   6   7   7 87.6842 10.7922   1
  -7   7  10 290.269 9.05601  -2
   7   7   7 290.269 9.05601   1
  -8   7  10 66.6866 5.31273  -2
   8   7   7 66.6866 5.31273   1
  -9   7  11 12.8692 2.89403  -2
   9   7   7 12.8692 2.89403   1
 -10   7  11 220.637 11.3319  -2
  10   7   7 220.637 11.3319   1
 -11   7  12 73.3374 7.00070  -2
  11   7   7 73.3374 7.00070   1
  11   7   7 10.0186 7.45676   1
 -12   7  12 16.0792 4.01402  -2
  12   7   7 16.0792 4.01402   1
 -13   7  12 45.9068 10.3099  -2
  13   7   7 45.9068 10.3099   1
  14   8   1 -3.0931 4.65563  -2
 -14   8   7 -3.0931 4.65563   1
  12   8   2 96.0713 5.65279  -2
 -12   8   7 96.0713 5.65279   1
  11   8   2 103.779 7.87364  -2
 -11   8   7 103.779 7.87364   1
  10   8   3 34.9628 4.40992  -2
 -10   8   7 34.9628 4.40992   1
   9   8   3 24.1914 2.62181  -2
  -9   8   7 24.1914 2.62181   1
   8   8   4 89.3259 5.00965  -2
  -8   8   7 89.3259 5.00965   1
  -8   8   7 16.5468 19.7882   2
   7   8   4 186.033 6.70426  -2
  -7   8   7 186.033 6.70426   1
  -6   8   7 61.1100 3.92703   2
   6   8   4 65.7480 9.55204  -2
  -6   8   7 65.7480 9.55204   1
   5   8   5 126.086 5.10697  -2
  -5   8   7 126.086 5.10697   1
   4   8   5 69.6542 3.96465  -2
  -4   8   7 69.6542 3.96465   1
   3   8   6 255.839 8.81439  -2
  -3   8   7 255.839 8.81439   1
   2   8   6 105.663 5.00744  -2
  -2   8   7 105.663 5.00744   1
  -1   8   7 506.297 22.4387   1
   1   8   7 740.822 27.1802  -2
  -1   8   7 740.822 27.1802   1
  -1   8   7 606.901 24.0987   2
   0   8   7 662.542 16.6377  -2
   0   8   7 662.542 16.6377   1
  -1   8   7 835.691 42.4656  -2
   1   8   7 835.691 42.4656   1
   1   8   7 179.512 7.84090   1
   1   8   7 215.706 10.7139   2
  -2   8   8 385.562 17.7524  -2
   2   8   7 385.562 17.7524   1
  -3   8   8 424.646 16.4978  -2
   3   8   7 424.646 16.4978   1
  -4   8   9 527.909 18.7650  -2
   4   8   7 527.909 18.7650   1
  -5   8   9 792.858 21.5025  -2
   5   8   7 792.858 21.5025   1
   6   8   7 59.2342 24.0511   2
   6   8   7 40.9609 8.26196   1
  -6   8  10 252.192 60.2754  -2
   6   8   7 252.192 60.2754   1
  -7   8  10 39.0583 3.25488  -2
   7   8   7 39.0583 3.25488   1
  -8   8  10 156.587 9.03310  -2
   8   8   7 156.587 9.03310   1
  -9   8  11 409.007 17.4052  -2
   9   8   7 409.007 17.4052   1
 -10   8  11 -10.040 4.15306  -2
  10   8   7 -10.040 4.15306   1
 -11   8  12 24.6142 5.65829  -2
  11   8   7 24.6142 5.65829   1
 -12   8  12 13.9530 3.56839  -2
  12   8   7 13.9530 3.56839   1
 -13   8  12 20.4381 13.5541  -2
  13   8   7 20.4381 13.5541   1
  12   9   2 54.3981 7.85805  -2
 -12   9   7 54.3981 7.85805   1
  11   9   2 143.201 9.60047  -2
 -11   9   7 143.201 9.60047   1
  10   9   3 34.8071 4.17755  -2
 -10   9   7 34.8071 4.17755   1
   9   9   3 84.3072 5.26538  -2
  -9   9   7 84.3072 5.26538   1
   8   9   4 44.3020 4.95019  -2
  -8   9   7 44.3020 4.95019   1
   7   9   4 184.320 6.54986  -2
  -7   9   7 184.320 6.54986   1
  -6   9   7 5.40265 5.19136   2
   6   9   4 101.834 8.76452  -2
  -6   9   7 101.834 8.76452   1
   5   9   5 372.737 12.6290  -2
  -5   9   7 372.737 12.6290   1
   4   9   5 120.938 5.34475  -2
  -4   9   7 120.938 5.34475   1
   3   9   6 179.066 6.63189  -2
  -3   9   7 179.066 6.63189   1
   2   9   6 49.0956 4.97297  -2
  -2   9   7 49.0956 4.97297   1
  -1   9   7 118.320 10.0616   1
  -1   9   7 135.556 7.64366   2
   1   9   7 228.684 17.0080  -2
  -1   9   7 228.684 17.0080   1
   0   9   7 62.4619 3.93261  -2
   0   9   7 62.4619 3.93261   1
  -1   9   7 224.593 26.3421  -2
   1   9   7 224.593 26.3421   1
   1   9   7 107.597 6.50754   1
   1   9   7 115.463 12.0017   2
  -2   9   8 66.8120 3.77562  -2
   2   9   7 66.8120 3.77562   1
  -3   9   8 96.4825 5.42043  -2
   3   9   7 96.4825 5.42043   1
  -4   9   9 126.549 5.40338  -2
   4   9   7 126.549 5.40338   1
   4   9   7 25.4251 3.73739   2
  -5   9   9 126.090 5.73956  -2
   5   9   7 126.090 5.73956   1
   6   9   7 9.24742 5.96082   1
   6   9   7 9.83415 12.2370   2
  -6   9  10 47.6763 24.9709  -2
   6   9   7 47.6763 24.9709   1
  -7   9  10 96.6913 4.75454  -2
   7   9   7 96.6913 4.75454   1
  -8   9  10 -0.1235 4.20086  -2
   8   9   7 -0.1235 4.20086   1
  -9   9  11 38.1832 4.75218  -2
   9   9   7 38.1832 4.75218   1
 -10   9  11 33.8688 4.89496  -2
  10   9   7 33.8688 4.89496   1
 -11   9  12 2.35694 5.96852  -2
  11   9   7 2.35694 5.96852   1
 -12   9  12 36.7881 4.60374  -2
  12   9   7 36.7881 4.60374   1
  13  10   2 41.2257 15.5215  -2
 -13  10   7 41.2257 15.5215   1
  12  10   2 -2.4188 3.70434  -2
 -12  10   7 -2.4188 3.70434   1
  11  10   2 49.4282 9.70646  -2
 -11  10   7 49.4282 9.70646   1
  10  10   3 84.9286 5.19361  -2
 -10  10   7 84.9286 5.19361   1
   9  10   3 392.494 13.3503  -2
  -9  10   7 392.494 13.3503   1
   8  10   4 52.5569 7.19655  -2
  -8  10   7 52.5569 7.19655   1
  -8  10   7 30.7369 3.96692   2
   7  10   4 268.201 9.30218  -2
  -7  10   7 268.201 9.30218   1
  -6  10   7 86.7261 14.0532   2
   6  10   4 123.436 10.2827  -2
  -6  10   7 123.436 10.2827   1
   6  10   5 193.213 22.7204  -2
  -6  10   7 193.213 22.7204   1
   5  10   5 326.965 10.7149  -2
  -5  10   7 326.965 10.7149   1
   4  10   5 365.420 14.1095  -2
  -4  10   7 365.420 14.1095   1
   3  10   6 532.370 16.2862  -2
  -3  10   7 532.370 16.2862   1
   2  10   6 340.077 10.2131  -2
  -2  10   7 340.077 10.2131   1
   1  10   7 33.0165 4.67235  -2
  -1  10   7 33.0165 4.67235   1
  -1  10   7 16.9346 3.11508   2
  -1  10   7 11.9043 13.9173   1
   0  10   7 112.422 4.27458  -2
   0  10   7 112.422 4.27458   1
   1  10   7 10.5653 2.49103   1
  -1  10   7 25.8021 2.52519  -2
   1  10   7 25.8021 2.52519   1
   1  10   7 7.52484 15.2491   2
  -2  10   8 136.250 6.08043  -2
   2  10   7 136.250 6.08043   1
  -3  10   8 130.694 6.62991  -2
   3  10   7 130.694 6.62991   1
  -4  10   9 53.8696 4.78808  -2
   4  10   7 53.8696 4.78808   1
  -5  10   9 214.476 8.07176  -2
   5  10   7 214.476 8.07176   1
  -6  10  10 54.8851 53.4591  -2
   6  10   7 54.8851 53.4591   1
  -6  10   9 136.912 18.2756  -2
   6  10   7 136.912 18.2756   1
   6  10   7 23.5702 8.67327   1
  -7  10  10 51.0537 3.79808  -2
   7  10   7 51.0537 3.79808   1
  -8  10  10 47.2652 6.83205  -2
   8  10   7 47.2652 6.83205   1
  -9  10  11 86.5765 5.76556  -2
   9  10   7 86.5765 5.76556   1
 -10  10  11 4.93168 4.33652  -2
  10  10   7 4.93168 4.33652   1
 -11  10  12 6.93270 5.62228  -2
  11  10   7 6.93270 5.62228   1
 -12  10  12 9.24923 4.18143  -2
  12  10   7 9.24923 4.18143   1
  12  11   2 12.1870 3.53581  -2
 -12  11   7 12.1870 3.53581   1
  11  11   2 45.1424 9.10229  -2
 -11  11   7 45.1424 9.10229   1
  10  11   3 30.4887 4.05440  -2
 -10  11   7 30.4887 4.05440   1
   9  11   3 68.3245 6.97034  -2
  -9  11   7 68.3245 6.97034   1
   8  11   4 114.877 9.02701  -2
  -8  11   7 114.877 9.02701   1
   7  11   4 45.2108 2.94990  -2
  -7  11   7 45.2108 2.94990   1
   6  11   4 18.7048 55.5175  -2
  -6  11   7 18.7048 55.5175   1
  -6  11   7 35.4602 10.0006   2
   5  11   5 154.999 5.63675  -2
  -5  11   7 154.999 5.63675   1
   4  11   5 319.816 13.3142  -2
  -4  11   7 319.816 13.3142   1
  -4  11   7 335.715 45.6410   2
   3  11   6 92.0083 3.96615  -2
  -3  11   7 92.0083 3.96615   1
   2  11   6 134.117 4.91753  -2
  -2  11   7 134.117 4.91753   1
   1  11   7 123.932 6.45135  -2
  -1  11   7 123.932 6.45135   1
  -1  11   7 59.9661 7.23585   2
  -1  11   7 52.0470 22.7455   1
   0  11   7 519.372 14.8410  -2
   0  11   7 519.372 14.8410   1
   1  11   7 62.3943 12.9530   2
  -1  11   7 117.556 7.29795  -2
   1  11   7 117.556 7.29795   1
   1  11   7 36.2897 4.50048   1
  -2  11   8 197.480 7.38037  -2
   2  11   7 197.480 7.38037   1
  -3  11   8 294.504 11.4171  -2
   3  11   7 294.504 11.4171   1
  -4  11   9 187.196 7.52525  -2
   4  11   7 187.196 7.52525   1
  -5  11   9 7.06772 3.04824  -2
   5  11   7 7.06772 3.04824   1
  -6  11  10 34.3468 15.0835  -2
   6  11   7 34.3468 15.0835   1
  -6  11   9 140.986 17.0754  -2
   6  11   7 140.986 17.0754   1
  -7  11  10 184.839 8.95124  -2
   7  11   7 184.839 8.95124   1
  -8  11  10 96.0480 8.98729  -2
   8  11   7 96.0480 8.98729   1
  -9  11  11 14.2008 4.16380  -2
   9  11   7 14.2008 4.16380   1
 -10  11  11 59.2047 5.62436  -2
  10  11   7 59.2047 5.62436   1
 -11  11  12 80.0106 8.75594  -2
  11  11   7 80.0106 8.75594   1
  10  12   3 24.2730 4.47192  -2
 -10  12   7 24.2730 4.47192   1
   9  12   3 106.799 5.79564  -2
  -9  12   7 106.799 5.79564   1
   8  12   4 31.2259 8.85851  -2
  -8  12   7 31.2259 8.85851   1
   7  12   4 41.6917 3.16207  -2
  -7  12   7 41.6917 3.16207   1
   5  12   5 145.280 6.99562  -2
  -5  12   7 145.280 6.99562   1
   4  12   5 41.1247 5.18094  -2
  -4  12   7 41.1247 5.18094   1
   3  12   6 62.3890 3.74268  -2
  -3  12   7 62.3890 3.74268   1
   2  12   6 133.226 6.17686  -2
  -2  12   7 133.226 6.17686   1
  -1  12   7 7.35258 17.4211   1
   1  12   7 23.0201 4.60086  -2
  -1  12   7 23.0201 4.60086   1
  -1  12   7 19.0745 3.94266   2
   0  12   7 0.15413 2.09000  -2
   0  12   7 0.15413 2.09000   1
   0  12   7 0.09373 0.17561   2
  -1  12   7 17.6168 6.49341  -2
   1  12   7 17.6168 6.49341   1
   1  12   7 3.16171 2.05914   1
  -2  12   8 184.026 7.37865  -2
   2  12   7 184.026 7.37865   1
  -3  12   8 150.315 7.12816  -2
   3  12   7 150.315 7.12816   1
  -4  12   9 12.0442 3.91389  -2
   4  12   7 12.0442 3.91389   1
  -5  12   9 23.6083 3.57258  -2
   5  12   7 23.6083 3.57258   1
  -6  12   9 4.47528 8.59084  -2
   6  12   7 4.47528 8.59084   1
  -7  12  10 23.9976 3.29562  -2
   7  12   7 23.9976 3.29562   1
  -8  12  10 4.42473 6.01460  -2
   8  12   7 4.42473 6.01460   1
  -9  12  11 6.02295 3.72395  -2
   9  12   7 6.02295 3.72395   1
 -10  12  11 8.63382 5.15528  -2
  10  12   7 8.63382 5.15528   1
  10  13   3 5.01612 6.03696  -2
 -10  13   7 5.01612 6.03696   1
   9  13   3 33.3146 5.09117  -2
  -9  13   7 33.3146 5.09117   1
   8  13   4 10.8883 7.54466  -2
  -8  13   7 10.8883 7.54466   1
   7  13   4 146.382 5.38781  -2
  -7  13   7 146.382 5.38781   1
   5  13   5 137.649 6.19493  -2
  -5  13   7 137.649 6.19493   1
   4  13   5 50.4005 5.13202  -2
  -4  13   7 50.4005 5.13202   1
   3  13   6 112.107 7.00158  -2
  -3  13   7 112.107 7.00158   1
   2  13   6 89.1332 5.32548  -2
  -2  13   7 89.1332 5.32548   1
  -1  13   7 6.74602 2.33846   2
  -1  13   7 19.9561 18.2009   1
   1  13   7 61.4226 7.22673  -2
  -1  13   7 61.4226 7.22673   1
   0  13   7 3.82079 2.20530  -2
   0  13   7 3.82079 2.20530   1
  -1  13   7 43.7480 7.81930  -2
   1  13   7 43.7480 7.81930   1
   1  13   7 48.3839 20.0452   1
   1  13   7 31.9427 23.7813   2
  -2  13   8 190.215 7.97603  -2
   2  13   7 190.215 7.97603   1
  -3  13   8 192.148 9.22947  -2
   3  13   7 192.148 9.22947   1
  -4  13   9 24.4060 6.44976  -2
   4  13   7 24.4060 6.44976   1
  -5  13   9 87.7448 4.81345  -2
   5  13   7 87.7448 4.81345   1
  -6  13  10 186.280 24.9090  -2
   6  13   7 186.280 24.9090   1
  -6  13   9 40.0669 10.3345  -2
   6  13   7 40.0669 10.3345   1
  -7  13  10 53.6151 3.96734  -2
   7  13   7 53.6151 3.96734   1
  -8  13  10 -6.5889 5.27721  -2
   8  13   7 -6.5889 5.27721   1
  -9  13  11 27.1080 6.76852  -2
   9  13   7 27.1080 6.76852   1
   9  14   3 21.9037 4.88404  -2
  -9  14   7 21.9037 4.88404   1
   8  14   4 91.4780 13.0840  -2
  -8  14   7 91.4780 13.0840   1
   7  14   4 89.8867 4.08969  -2
  -7  14   7 89.8867 4.08969   1
   5  14   5 29.7275 3.22165  -2
  -5  14   7 29.7275 3.22165   1
   4  14   5 58.7924 4.85920  -2
  -4  14   7 58.7924 4.85920   1
   3  14   6 45.7128 4.51872  -2
  -3  14   7 45.7128 4.51872   1
   2  14   6 149.351 7.79506  -2
  -2  14   7 149.351 7.79506   1
  -1  14   7 46.7970 11.9964   1
   1  14   7 138.779 19.0344  -2
  -1  14   7 138.779 19.0344   1
   0  14   7 1.40731 3.15407  -2
   0  14   7 1.40731 3.15407   1
  -1  14   7 129.654 20.8082  -2
   1  14   7 129.654 20.8082   1
  -2  14   8 104.042 8.19610  -2
   2  14   7 104.042 8.19610   1
  -3  14   8 101.579 6.43944  -2
   3  14   7 101.579 6.43944   1
  -4  14   9 18.9061 4.70159  -2
   4  14   7 18.9061 4.70159   1
  -5  14   9 180.963 7.77080  -2
   5  14   7 180.963 7.77080   1
  -6  14  10 43.1723 15.4425  -2
   6  14   7 43.1723 15.4425   1
  -7  14  10 39.3658 3.69070  -2
   7  14   7 39.3658 3.69070   1
  -8  14  10 28.9708 6.36828  -2
   8  14   7 28.9708 6.36828   1
   8  15   4 -14.989 11.9697  -2
  -8  15   7 -14.989 11.9697   1
   7  15   4 75.6791 5.03051  -2
  -7  15   7 75.6791 5.03051   1
   5  15   5 9.04111 2.89584  -2
  -5  15   7 9.04111 2.89584   1
   4  15   5 31.1003 4.10305  -2
  -4  15   7 31.1003 4.10305   1
   3  15   6 21.4974 3.98393  -2
  -3  15   7 21.4974 3.98393   1
   2  15   6 15.4347 4.01057  -2
  -2  15   7 15.4347 4.01057   1
   1  15   7 9.50856 12.5496  -2
  -1  15   7 9.50856 12.5496   1
   0  15   7 49.7914 3.89517  -2
   0  15   7 49.7914 3.89517   1
  -2  15   8 8.99332 4.07976  -2
   2  15   7 8.99332 4.07976   1
  -3  15   8 7.05896 4.20117  -2
   3  15   7 7.05896 4.20117   1
  -4  15   9 15.0903 4.97422  -2
   4  15   7 15.0903 4.97422   1
  -5  15   9 16.0794 3.84301  -2
   5  15   7 16.0794 3.84301   1
  -6  15   9 -19.161 16.0607  -2
   6  15   7 -19.161 16.0607   1
  -7  15  10 0.54140 5.62540  -2
   7  15   7 0.54140 5.62540   1
   5  16   5 13.9810 4.57711  -2
  -5  16   7 13.9810 4.57711   1
   4  16   5 113.559 9.16536  -2
  -4  16   7 113.559 9.16536   1
   3  16   6 128.897 8.06626  -2
  -3  16   7 128.897 8.06626   1
   2  16   6 80.6912 5.96973  -2
  -2  16   7 80.6912 5.96973   1
   1  16   7 93.3183 12.9529  -2
  -1  16   7 93.3183 12.9529   1
   0  16   7 54.1358 3.97158  -2
   0  16   7 54.1358 3.97158   1
  -1  16   7 88.5488 12.4391  -2
   1  16   7 88.5488 12.4391   1
  -2  16   8 40.7313 4.70401  -2
   2  16   7 40.7313 4.70401   1
  -3  16   8 7.32753 6.14400  -2
   3  16   7 7.32753 6.14400   1
  -4  16   9 24.7803 6.45635  -2
   4  16   7 24.7803 6.45635   1
  -5  16   9 40.7669 4.98159  -2
   5  16   7 40.7669 4.98159   1
   4  17   5 50.8684 8.36500  -2
  -4  17   7 50.8684 8.36500   1
   3  17   6 -5.0327 6.19670  -2
  -3  17   7 -5.0327 6.19670   1
   2  17   6 16.4818 5.81018  -2
  -2  17   7 16.4818 5.81018   1
   1  17   7 10.3245 14.7616  -2
  -1  17   7 10.3245 14.7616   1
   0  17   7 55.4783 4.71215  -2
   0  17   7 55.4783 4.71215   1
  -1  17   7 25.0844 14.7921  -2
   1  17   7 25.0844 14.7921   1
  -2  17   8 -2.7479 4.61558  -2
   2  17   7 -2.7479 4.61558   1
  -3  17   8 19.0436 6.59781  -2
   3  17   7 19.0436 6.59781   1
  15   0   2 3.86648 14.3986  -2
 -15   0   8 3.86648 14.3986   1
  14   0   2 30.6316 6.74971  -2
 -14   0   8 30.6316 6.74971   1
  12   0   3 91.1505 8.72224  -2
 -12   0   8 91.1505 8.72224   1
  11   0   3 76.0650 10.3315  -2
 -11   0   8 76.0650 10.3315   1
  10   0   4 5.13507 4.04955  -2
 -10   0   8 5.13507 4.04955   1
   9   0   4 -3.1338 4.10266  -2
  -9   0   8 -3.1338 4.10266   1
   8   0   5 31.8821 6.23684  -2
  -8   0   8 31.8821 6.23684   1
   7   0   5 10.0738 3.11765  -2
  -7   0   8 10.0738 3.11765   1
  -6   0   8 184.346 40.7677   2
   6   0   5 126.449 10.6187  -2
  -6   0   8 126.449 10.6187   1
  -6   0   8 127.737 6.71363   1
   5   0   6 -2.4517 1.27139  -2
  -5   0   8 -2.4517 1.27139   1
   4   0   6 614.103 19.8654  -2
  -4   0   8 614.103 19.8654   1
  -4   0   8 790.670 62.6527   1
   3   0   7 28.9589 2.23196  -2
  -3   0   8 28.9589 2.23196   1
   2   0   7 432.242 14.2976  -2
  -2   0   8 432.242 14.2976   1
   1   0   8 0.02665 2.74941  -2
  -1   0   8 0.02665 2.74941   1
  -1   0   8 -10.163 8.98223   1
   0   0   8 67.6622 2.55170  -2
   0   0   8 67.6622 2.55170   1
  -1   0   8 -3.5223 2.64319  -2
   1   0   8 -3.5223 2.64319   1
  -2   0   9 39.3237 3.20130  -2
   2   0   8 39.3237 3.20130   1
  -3   0   9 82.2598 5.76622  -2
   3   0   8 82.2598 5.76622   1
  -4   0  10 634.394 22.6386  -2
   4   0   8 634.394 22.6386   1
  -5   0  10 0.46130 2.47304  -2
   5   0   8 0.46130 2.47304   1
   6   0   8 52.5182 24.4115   1
   6   0   8 42.0290 4.74450   2
  -6   0  11 58.3857 6.08666  -2
   6   0   8 58.3857 6.08666   1
  -7   0  11 137.406 7.61138  -2
   7   0   8 137.406 7.61138   1
  -8   0  11 240.495 13.0667  -2
   8   0   8 240.495 13.0667   1
  -9   0  12 -8.1428 7.13927  -2
   9   0   8 -8.1428 7.13927   1
 -10   0  12 41.5633 5.59720  -2
  10   0   8 41.5633 5.59720   1
 -11   0  13 103.418 9.82257  -2
  11   0   8 103.418 9.82257   1
 -12   0  13 294.464 15.3666  -2
  12   0   8 294.464 15.3666   1
 -14   0  14 53.6538 6.62073  -2
  14   0   8 53.6538 6.62073   1
  15   1   2 -1.9232 7.65618  -2
 -15   1   8 -1.9232 7.65618   1
  14   1   2 57.7344 5.94790  -2
 -14   1   8 57.7344 5.94790   1
  12   1   3 231.660 9.43183  -2
 -12   1   8 231.660 9.43183   1
  11   1   3 273.389 10.7892  -2
 -11   1   8 273.389 10.7892   1
  10   1   4 36.3744 2.82308  -2
 -10   1   8 36.3744 2.82308   1
   9   1   4 54.6897 3.88856  -2
  -9   1   8 54.6897 3.88856   1
   8   1   5 506.658 18.5591  -2
  -8   1   8 506.658 18.5591   1
   7   1   5 1326.07 33.5107  -2
  -7   1   8 1326.07 33.5107   1
   6   1   5 538.313 23.0045  -2
  -6   1   8 538.313 23.0045   1
  -6   1   8 208.098 7.78578   1
  -6   1   8 262.712 29.9108   2
   5   1   6 188.261 5.84243  -2
  -5   1   8 188.261 5.84243   1
   4   1   6 415.787 14.4279  -2
  -4   1   8 415.787 14.4279   1
  -4   1   8 14.7986 1.97222   1
   3   1   7 1516.66 30.7693  -2
  -3   1   8 1516.66 30.7693   1
   2   1   7 2763.83 57.0127  -2
  -2   1   8 2763.83 57.0127   1
  -1   1   8 877.095 44.9100   2
   1   1   7 928.786 73.2531  -2
  -1   1   8 928.786 73.2531   1
   1   1   8 1102.70 25.8612  -2
  -1   1   8 1102.70 25.8612   1
  -1   1   8 688.749 54.9532   1
   0   1   8 28.9200 1.24653  -2
   0   1   8 28.9200 1.24653   1
   1   1   8 332.585 19.1561   1
  -1   1   8 1198.97 40.3249  -2
   1   1   8 1198.97 40.3249   1
   1   1   8 396.962 37.0074   2
  -2   1   9 847.299 22.4669  -2
   2   1   8 847.299 22.4669   1
  -3   1   9 454.621 13.0944  -2
   3   1   8 454.621 13.0944   1
  -4   1  10 63.4636 3.24999  -2
   4   1   8 63.4636 3.24999   1
  -5   1  10 108.464 4.20693  -2
   5   1   8 108.464 4.20693   1
   6   1   8 28.9752 3.02561   2
   6   1   8 13.8216 11.4229   1
  -6   1  11 81.5042 6.77435  -2
   6   1   8 81.5042 6.77435   1
  -6   1  10 74.0860 13.7025  -2
   6   1   8 74.0860 13.7025   1
  -7   1  11 207.718 8.31673  -2
   7   1   8 207.718 8.31673   1
  -8   1  11 41.2824 4.30011  -2
   8   1   8 41.2824 4.30011   1
  -9   1  12 59.1538 3.68062  -2
   9   1   8 59.1538 3.68062   1
 -10   1  12 14.1123 4.11971  -2
  10   1   8 14.1123 4.11971   1
 -11   1  13 103.354 5.41872  -2
  11   1   8 103.354 5.41872   1
 -12   1  13 8.29226 3.48263  -2
  12   1   8 8.29226 3.48263   1
 -13   1  13 32.1276 17.8674  -2
  13   1   8 32.1276 17.8674   1
 -14   1  14 16.9840 4.10184  -2
  14   1   8 16.9840 4.10184   1
  15   2   2 63.5336 12.0749  -2
 -15   2   8 63.5336 12.0749   1
  14   2   2 64.2535 6.09127  -2
 -14   2   8 64.2535 6.09127   1
  12   2   3 9.93223 3.57624  -2
 -12   2   8 9.93223 3.57624   1
  11   2   3 82.6431 4.92841  -2
 -11   2   8 82.6431 4.92841   1
  10   2   4 135.729 6.75898  -2
 -10   2   8 135.729 6.75898   1
   9   2   4 609.337 24.0170  -2
  -9   2   8 609.337 24.0170   1
   8   2   5 183.531 7.32721  -2
  -8   2   8 183.531 7.32721   1
  -8   2   8 178.195 16.3571   1
   7   2   5 189.209 5.82504  -2
  -7   2   8 189.209 5.82504   1
  -6   2   8 208.549 35.0562   2
  -6   2   8 167.569 7.00843   1
   6   2   5 539.027 40.4556  -2
  -6   2   8 539.027 40.4556   1
   5   2   6 1084.26 27.3311  -2
  -5   2   8 1084.26 27.3311   1
   4   2   6 981.121 24.5343  -2
  -4   2   8 981.121 24.5343   1
  -4   2   8 896.162 70.4592   1
   3   2   7 31.0082 1.64242  -2
  -3   2   8 31.0082 1.64242   1
   2   2   7 152.321 3.78913  -2
  -2   2   8 152.321 3.78913   1
   1   2   8 264.066 9.85455  -2
  -1   2   8 264.066 9.85455   1
  -1   2   8 124.115 5.50786   1
  -1   2   8 160.428 10.6936   2
   0   2   8 1119.19 23.3742  -2
   0   2   8 1119.19 23.3742   1
  -1   2   8 263.666 7.56429  -2
   1   2   8 263.666 7.56429   1
   1   2   8 105.349 8.51631   1
   1   2   8 111.442 6.20806   2
  -2   2   9 1326.31 30.0421  -2
   2   2   8 1326.31 30.0421   1
  -3   2   9 403.668 12.0706  -2
   3   2   8 403.668 12.0706   1
  -4   2  10 880.722 23.1897  -2
   4   2   8 880.722 23.1897   1
  -5   2  10 284.797 7.78989  -2
   5   2   8 284.797 7.78989   1
  -6   2  11 400.687 22.7319  -2
   6   2   8 400.687 22.7319   1
   6   2   8 157.347 8.93747   2
   6   2   8 138.700 45.7486   1
  -7   2  11 94.7396 4.37217  -2
   7   2   8 94.7396 4.37217   1
  -8   2  11 254.483 10.8909  -2
   8   2   8 254.483 10.8909   1
  -9   2  12 40.8136 2.47948  -2
   9   2   8 40.8136 2.47948   1
 -10   2  12 418.563 14.1321  -2
  10   2   8 418.563 14.1321   1
 -11   2  13 34.0705 3.95557  -2
  11   2   8 34.0705 3.95557   1
 -12   2  13 45.8326 4.55336  -2
  12   2   8 45.8326 4.55336   1
 -13   2  14 1.62658 14.5549  -2
  13   2   8 1.62658 14.5549   1
 -14   2  14 80.8483 6.03982  -2
  14   2   8 80.8483 6.03982   1
  15   3   2 28.3312 9.86730  -2
 -15   3   8 28.3312 9.86730   1
  14   3   2 -6.6628 4.08606  -2
 -14   3   8 -6.6628 4.08606   1
 -13   3   8 4.47293 7.03429   2
  12   3   3 5.49172 2.77093  -2
 -12   3   8 5.49172 2.77093   1
  11   3   3 29.9231 4.27526  -2
 -11   3   8 29.9231 4.27526   1
  10   3   4 13.8541 3.09014  -2
 -10   3   8 13.8541 3.09014   1
   9   3   4 22.5481 3.38356  -2
  -9   3   8 22.5481 3.38356   1
   8   3   5 209.268 9.40127  -2
  -8   3   8 209.268 9.40127   1
  -8   3   8 158.259 15.3013   1
   7   3   5 80.4838 3.91832  -2
  -7   3   8 80.4838 3.91832   1
  -6   3   8 68.6119 4.07177   1
  -6   3   8 69.9852 5.87258   2
   6   3   5 60.1146 6.02955  -2
  -6   3   8 60.1146 6.02955   1
   5   3   6 78.8033 3.20563  -2
  -5   3   8 78.8033 3.20563   1
   4   3   6 306.821 7.89970  -2
  -4   3   8 306.821 7.89970   1
  -4   3   8 63.2326 6.56753   1
   3   3   7 18.4458 1.41952  -2
  -3   3   8 18.4458 1.41952   1
   2   3   7 43.1110 1.98375  -2
  -2   3   8 43.1110 1.98375   1
   1   3   8 629.758 22.3622  -2
  -1   3   8 629.758 22.3622   1
  -1   3   8 126.282 5.98873   1
  -1   3   8 130.698 8.19190   2
   0   3   8 1829.93 41.1550  -2
   0   3   8 1829.93 41.1550   1
   1   3   8 447.722 21.3512   1
   1   3   8 530.865 20.0847   2
  -1   3   8 578.225 14.7911  -2
   1   3   8 578.225 14.7911   1
  -2   3   9 49.5153 2.12392  -2
   2   3   8 49.5153 2.12392   1
  -3   3   9 273.800 6.93852  -2
   3   3   8 273.800 6.93852   1
  -4   3  10 340.600 8.97949  -2
   4   3   8 340.600 8.97949   1
  -5   3  10 997.225 26.5708  -2
   5   3   8 997.225 26.5708   1
  -6   3  11 35.9006 4.59889  -2
   6   3   8 35.9006 4.59889   1
   6   3   8 22.7263 5.89589   1
   6   3   8 23.3135 2.68707   2
  -7   3  11 86.9051 3.84398  -2
   7   3   8 86.9051 3.84398   1
  -8   3  11 107.396 5.34239  -2
   8   3   8 107.396 5.34239   1
  -9   3  12 331.676 11.3905  -2
   9   3   8 331.676 11.3905   1
 -10   3  12 29.8445 3.84826  -2
  10   3   8 29.8445 3.84826   1
 -11   3  13 26.1392 4.21104  -2
  11   3   8 26.1392 4.21104   1
 -12   3  13 16.2427 4.32063  -2
  12   3   8 16.2427 4.32063   1
 -13   3  13 -6.0293 14.9911  -2
  13   3   8 -6.0293 14.9911   1
 -13   3  14 43.8588 16.2081  -2
  13   3   8 43.8588 16.2081   1
 -14   3  14 5.97844 5.29725  -2
  14   3   8 5.97844 5.29725   1
  15   4   2 15.0178 14.7666  -2
 -15   4   8 15.0178 14.7666   1
  14   4   2 249.872 12.6046  -2
 -14   4   8 249.872 12.6046   1
 -13   4   8 25.4006 9.66129   2
  12   4   3 38.3090 4.41880  -2
 -12   4   8 38.3090 4.41880   1
  11   4   3 54.0634 5.19017  -2
 -11   4   8 54.0634 5.19017   1
  10   4   4 573.023 16.8088  -2
 -10   4   8 573.023 16.8088   1
   9   4   4 116.386 6.32684  -2
  -9   4   8 116.386 6.32684   1
   8   4   5 154.690 7.00199  -2
  -8   4   8 154.690 7.00199   1
   7   4   5 25.7439 2.67685  -2
  -7   4   8 25.7439 2.67685   1
  -6   4   8 5.64148 1.93837   1
  -6   4   8 7.58397 2.95894   2
   6   4   5 43.1591 5.48027  -2
  -6   4   8 43.1591 5.48027   1
   5   4   6 316.337 9.24870  -2
  -5   4   8 316.337 9.24870   1
   4   4   6 1834.92 44.6789  -2
  -4   4   8 1834.92 44.6789   1
   3   4   7 230.865 5.49682  -2
  -3   4   8 230.865 5.49682   1
   2   4   7 49.6182 1.78968  -2
  -2   4   8 49.6182 1.78968   1
  -1   4   8 47.7190 3.38106   1
  -1   4   8 69.6576 4.35263   2
   1   4   8 224.686 11.1319  -2
  -1   4   8 224.686 11.1319   1
   0   4   8 1776.11 40.5269  -2
   0   4   8 1776.11 40.5269   1
  -1   4   8 217.468 7.00531  -2
   1   4   8 217.468 7.00531   1
   1   4   8 175.684 7.64433   2
   1   4   8 132.483 7.33013   1
  -2   4   9 134.029 3.97422  -2
   2   4   8 134.029 3.97422   1
  -3   4   9 465.290 13.1101  -2
   3   4   8 465.290 13.1101   1
  -4   4  10 250.294 7.06166  -2
   4   4   8 250.294 7.06166   1
  -5   4  10 222.972 6.21072  -2
   5   4   8 222.972 6.21072   1
   6   4   8 12.7056 2.72021   2
  -6   4  11 66.4228 22.4543  -2
   6   4   8 66.4228 22.4543   1
   6   4   8 1.48985 5.25157   1
  -7   4  11 80.6718 3.22765  -2
   7   4   8 80.6718 3.22765   1
  -8   4  11 176.851 8.63037  -2
   8   4   8 176.851 8.63037   1
  -9   4  12 45.3075 4.10635  -2
   9   4   8 45.3075 4.10635   1
 -10   4  12 3.76362 3.52839  -2
  10   4   8 3.76362 3.52839   1
 -11   4  13 89.9079 6.78574  -2
  11   4   8 89.9079 6.78574   1
 -12   4  13 112.637 6.78952  -2
  12   4   8 112.637 6.78952   1
  13   4   8 4.62775 7.46188   1
 -13   4  13 4.93172 10.6892  -2
  13   4   8 4.93172 10.6892   1
 -14   4  14 7.00267 5.48527  -2
  14   4   8 7.00267 5.48527   1
  15   5   2 61.3308 16.9869  -2
 -15   5   8 61.3308 16.9869   1
  14   5   2 59.6187 6.18761  -2
 -14   5   8 59.6187 6.18761   1
  12   5   3 17.7275 4.17479  -2
 -12   5   8 17.7275 4.17479   1
  11   5   3 149.546 11.5616  -2
 -11   5   8 149.546 11.5616   1
  10   5   4 77.1257 4.69320  -2
 -10   5   8 77.1257 4.69320   1
   9   5   4 116.401 6.75957  -2
  -9   5   8 116.401 6.75957   1
   8   5   5 44.1742 3.66718  -2
  -8   5   8 44.1742 3.66718   1
   7   5   5 341.367 12.1226  -2
  -7   5   8 341.367 12.1226   1
  -6   5   8 168.612 7.47495   1
   6   5   5 441.825 21.7156  -2
  -6   5   8 441.825 21.7156   1
  -6   5   8 200.097 15.6789   2
   5   5   6 135.129 4.54456  -2
  -5   5   8 135.129 4.54456   1
   4   5   6 98.5328 3.47742  -2
  -4   5   8 98.5328 3.47742   1
   3   5   7 1009.85 23.9386  -2
  -3   5   8 1009.85 23.9386   1
   2   5   7 1301.16 32.2929  -2
  -2   5   8 1301.16 32.2929   1
  -1   5   8 155.979 6.42533   2
   1   5   8 991.511 34.7028  -2
  -1   5   8 991.511 34.7028   1
  -1   5   8 106.588 5.73438   1
   0   5   8 151.730 4.24519  -2
   0   5   8 151.730 4.24519   1
  -1   5   8 937.323 28.6617  -2
   1   5   8 937.323 28.6617   1
   1   5   8 942.272 36.3560   2
   1   5   8 715.899 26.6140   1
  -2   5   9 1573.07 38.7983  -2
   2   5   8 1573.07 38.7983   1
  -3   5   9 1263.71 31.9368  -2
   3   5   8 1263.71 31.9368   1
  -4   5  10 255.524 8.20759  -2
   4   5   8 255.524 8.20759   1
  -5   5  10 314.050 12.2608  -2
   5   5   8 314.050 12.2608   1
  -6   5  11 728.019 36.4995  -2
   6   5   8 728.019 36.4995   1
   6   5   8 6.92706 2.10296   2
   6   5   8 5.10150 5.52134   1
  -7   5  11 593.359 17.2527  -2
   7   5   8 593.359 17.2527   1
  -8   5  11 241.903 11.9175  -2
   8   5   8 241.903 11.9175   1
  -9   5  12 44.4813 3.81228  -2
   9   5   8 44.4813 3.81228   1
 -10   5  12 2.15572 3.66715  -2
  10   5   8 2.15572 3.66715   1
 -11   5  13 27.3044 7.05896  -2
  11   5   8 27.3044 7.05896   1
 -12   5  13 141.430 8.02546  -2
  12   5   8 141.430 8.02546   1
 -13   5  13 59.6649 13.0241  -2
  13   5   8 59.6649 13.0241   1
  13   5   8 25.4033 9.93262   1
 -14   5  14 17.5126 5.94840  -2
  14   5   8 17.5126 5.94840   1
  14   6   2 12.9363 4.78155  -2
 -14   6   8 12.9363 4.78155   1
  12   6   3 43.2126 3.94740  -2
 -12   6   8 43.2126 3.94740   1
  11   6   3 19.1431 5.49148  -2
 -11   6   8 19.1431 5.49148   1
  10   6   4 40.9940 4.28374  -2
 -10   6   8 40.9940 4.28374   1
   9   6   4 31.5696 3.65358  -2
  -9   6   8 31.5696 3.65358   1
   8   6   5 78.7113 4.50983  -2
  -8   6   8 78.7113 4.50983   1
   7   6   5 95.8065 4.18942  -2
  -7   6   8 95.8065 4.18942   1
  -6   6   8 -1.7490 1.84653   2
  -6   6   8 2.81226 1.42251   1
   6   6   5 26.8929 5.71912  -2
  -6   6   8 26.8929 5.71912   1
   5   6   6 232.033 7.75441  -2
  -5   6   8 232.033 7.75441   1
   4   6   6 136.801 4.33071  -2
  -4   6   8 136.801 4.33071   1
   3   6   7 62.8052 2.55976  -2
  -3   6   8 62.8052 2.55976   1
   2   6   7 150.911 4.71699  -2
  -2   6   8 150.911 4.71699   1
  -1   6   8 31.2771 2.68178   1
   1   6   8 144.272 6.34883  -2
  -1   6   8 144.272 6.34883   1
  -1   6   8 41.0100 3.70616   2
   0   6   8 100.222 3.21042  -2
   0   6   8 100.222 3.21042   1
  -1   6   8 128.804 6.67935  -2
   1   6   8 128.804 6.67935   1
   1   6   8 112.749 5.62860   2
   1   6   8 84.0339 7.40748   1
  -2   6   9 274.788 8.68468  -2
   2   6   8 274.788 8.68468   1
  -3   6   9 285.786 8.67849  -2
   3   6   8 285.786 8.67849   1
  -4   6  10 116.641 6.47105  -2
   4   6   8 116.641 6.47105   1
  -5   6  10 269.117 12.0023  -2
   5   6   8 269.117 12.0023   1
  -6   6  11 79.1609 13.2388  -2
   6   6   8 79.1609 13.2388   1
   6   6   8 55.1517 9.74138   1
   6   6   8 89.1576 4.73487   2
  -7   6  11 421.928 13.5987  -2
   7   6   8 421.928 13.5987   1
  -8   6  11 169.634 8.25529  -2
   8   6   8 169.634 8.25529   1
  -9   6  12 117.772 6.31056  -2
   9   6   8 117.772 6.31056   1
 -10   6  12 38.3259 4.50079  -2
  10   6   8 38.3259 4.50079   1
 -11   6  13 109.767 7.72710  -2
  11   6   8 109.767 7.72710   1
  11   6   8 10.6297 7.41631   1
 -12   6  13 18.7261 3.81948  -2
  12   6   8 18.7261 3.81948   1
  13   6   8 6.93928 8.09349   1
 -13   6  13 29.3236 11.4067  -2
  13   6   8 29.3236 11.4067   1
  14   7   2 16.1739 6.43722  -2
 -14   7   8 16.1739 6.43722   1
  12   7   3 89.9437 5.45895  -2
 -12   7   8 89.9437 5.45895   1
  11   7   3 239.378 13.0293  -2
 -11   7   8 239.378 13.0293   1
  10   7   4 80.9041 4.94828  -2
 -10   7   8 80.9041 4.94828   1
   9   7   4 181.057 7.62281  -2
  -9   7   8 181.057 7.62281   1
   8   7   5 13.4184 3.84058  -2
  -8   7   8 13.4184 3.84058   1
  -8   7   8 20.8862 17.2488   2
   7   7   5 678.455 18.1417  -2
  -7   7   8 678.455 18.1417   1
   6   7   5 51.2023 20.1545  -2
  -6   7   8 51.2023 20.1545   1
  -6   7   8 11.9848 0.58831   2
  -6   7   8 26.2893 4.70817   1
   6   7   6 258.143 25.7930  -2
  -6   7   8 258.143 25.7930   1
   5   7   6 253.835 8.58950  -2
  -5   7   8 253.835 8.58950   1
   4   7   6 266.651 11.0087  -2
  -4   7   8 266.651 11.0087   1
  -3   7   8 155.661 14.0913   1
   3   7   7 266.964 7.65579  -2
  -3   7   8 266.964 7.65579   1
   2   7   7 151.766 5.10058  -2
  -2   7   8 151.766 5.10058   1
   1   7   8 34.5107 3.54772  -2
  -1   7   8 34.5107 3.54772   1
  -1   7   8 13.2722 2.32225   1
  -1   7   8 15.3142 3.06723   2
   0   7   8 450.434 11.1235  -2
   0   7   8 450.434 11.1235   1
  -1   7   8 31.5918 4.18149  -2
   1   7   8 31.5918 4.18149   1
   1   7   8 19.8960 2.27649   2
   1   7   8 18.5133 3.14637   1
  -2   7   9 184.114 5.69912  -2
   2   7   8 184.114 5.69912   1
  -3   7   9 157.045 8.99851  -2
   3   7   8 157.045 8.99851   1
  -4   7  10 98.0999 6.97031  -2
   4   7   8 98.0999 6.97031   1
  -5   7  10 246.973 8.18056  -2
   5   7   8 246.973 8.18056   1
  -6   7  11 17.3490 14.3338  -2
   6   7   8 17.3490 14.3338   1
   6   7   8 25.4183 7.33208   1
   6   7   8 33.5927 5.49433   2
  -7   7  11 101.779 4.40339  -2
   7   7   8 101.779 4.40339   1
  -8   7  11 144.148 10.6069  -2
   8   7   8 144.148 10.6069   1
  -9   7  12 183.834 9.37924  -2
   9   7   8 183.834 9.37924   1
 -10   7  12 18.7754 4.51737  -2
  10   7   8 18.7754 4.51737   1
 -11   7  13 169.766 10.0181  -2
  11   7   8 169.766 10.0181   1
 -12   7  13 25.7194 3.96700  -2
  12   7   8 25.7194 3.96700   1
 -13   7  13 10.8588 6.61219  -2
  13   7   8 10.8588 6.61219   1
  14   8   2 3.52725 4.49954  -2
 -14   8   8 3.52725 4.49954   1
  12   8   3 41.8461 4.17874  -2
 -12   8   8 41.8461 4.17874   1
  11   8   3 7.79665 6.11226  -2
 -11   8   8 7.79665 6.11226   1
  10   8   4 43.7034 4.43111  -2
 -10   8   8 43.7034 4.43111   1
   9   8   4 14.3166 2.87250  -2
  -9   8   8 14.3166 2.87250   1
   8   8   5 115.816 5.44170  -2
  -8   8   8 115.816 5.44170   1
   7   8   5 52.9279 2.86793  -2
  -7   8   8 52.9279 2.86793   1
   6   8   5 564.959 38.0458  -2
  -6   8   8 564.959 38.0458   1
  -6   8   8 343.847 34.2617   1
  -6   8   8 371.635 29.8514   2
   5   8   6 267.478 9.03213  -2
  -5   8   8 267.478 9.03213   1
   4   8   6 327.102 12.7963  -2
  -4   8   8 327.102 12.7963   1
   3   8   7 414.666 18.2440  -2
  -3   8   8 414.666 18.2440   1
   2   8   7 376.739 14.9197  -2
  -2   8   8 376.739 14.9197   1
  -1   8   8 94.6655 10.7637   2
  -1   8   8 99.9536 8.38609   1
   1   8   8 505.582 28.5498  -2
  -1   8   8 505.582 28.5498   1
   0   8   8 738.033 23.2098  -2
   0   8   8 738.033 23.2098   1
   1   8   8 386.409 33.6776   2
   1   8   8 377.073 25.4258   1
  -1   8   8 428.861 30.3357  -2
   1   8   8 428.861 30.3357   1
  -2   8   9 51.0054 4.21370  -2
   2   8   8 51.0054 4.21370   1
  -3   8   9 152.769 8.71510  -2
   3   8   8 152.769 8.71510   1
  -4   8  10 649.687 18.8257  -2
   4   8   8 649.687 18.8257   1
   4   8   8 346.251 30.3811   2
  -5   8  10 154.468 5.95181  -2
   5   8   8 154.468 5.95181   1
   6   8   8 161.512 56.4850   2
  -6   8  11 194.884 18.9272  -2
   6   8   8 194.884 18.9272   1
   6   8   8 147.878 15.3552   1
  -7   8  11 61.3928 3.89069  -2
   7   8   8 61.3928 3.89069   1
  -8   8  11 87.8709 5.84676  -2
   8   8   8 87.8709 5.84676   1
  -9   8  12 11.1176 6.27688  -2
   9   8   8 11.1176 6.27688   1
 -10   8  12 370.501 14.3352  -2
  10   8   8 370.501 14.3352   1
 -11   8  13 3.23999 5.31801  -2
  11   8   8 3.23999 5.31801   1
 -12   8  13 7.38019 3.33125  -2
  12   8   8 7.38019 3.33125   1
 -13   8  13 46.3911 11.9350  -2
  13   8   8 46.3911 11.9350   1
  13   8   8 -3.8557 7.23404   1
  12   9   3 85.1051 7.38370  -2
 -12   9   8 85.1051 7.38370   1
  11   9   3 10.5684 5.52320  -2
 -11   9   8 10.5684 5.52320   1
  10   9   4 52.7753 3.83896  -2
 -10   9   8 52.7753 3.83896   1
   9   9   4 79.3599 4.68529  -2
  -9   9   8 79.3599 4.68529   1
   8   9   5 93.3969 6.98288  -2
  -8   9   8 93.3969 6.98288   1
  -8   9   8 23.5399 13.0379   1
   7   9   5 4.10274 1.89002  -2
  -7   9   8 4.10274 1.89002   1
  -6   9   8 18.0089 7.44498   2
   6   9   5 44.6184 7.30265  -2
  -6   9   8 44.6184 7.30265   1
   5   9   6 68.7665 5.37178  -2
  -5   9   8 68.7665 5.37178   1
   4   9   6 265.738 9.60148  -2
  -4   9   8 265.738 9.60148   1
   3   9   7 95.1340 4.88924  -2
  -3   9   8 95.1340 4.88924   1
   2   9   7 50.0528 4.08010  -2
  -2   9   8 50.0528 4.08010   1
  -1   9   8 16.7665 1.55067   2
   1   9   8 49.4620 7.66954  -2
  -1   9   8 49.4620 7.66954   1
  -1   9   8 28.5292 6.56746   1
   0   9   8 232.477 7.75047  -2
   0   9   8 232.477 7.75047   1
   1   9   8 28.6413 5.23332   1
  -1   9   8 49.4647 9.99834  -2
   1   9   8 49.4647 9.99834   1
   1   9   8 35.7013 7.45419   2
  -2   9   9 180.509 6.23267  -2
   2   9   8 180.509 6.23267   1
  -3   9   9 55.7489 4.00200  -2
   3   9   8 55.7489 4.00200   1
  -4   9  10 50.9216 4.02225  -2
   4   9   8 50.9216 4.02225   1
  -5   9  10 47.6182 3.75332  -2
   5   9   8 47.6182 3.75332   1
   6   9   8 2.42358 5.64903   1
  -6   9  11 16.6608 30.5167  -2
   6   9   8 16.6608 30.5167   1
  -7   9  11 68.6084 4.20405  -2
   7   9   8 68.6084 4.20405   1
  -8   9  11 62.5000 5.61804  -2
   8   9   8 62.5000 5.61804   1
  -9   9  12 67.5429 5.39594  -2
   9   9   8 67.5429 5.39594   1
 -10   9  12 29.8866 4.49134  -2
  10   9   8 29.8866 4.49134   1
 -11   9  13 -2.5837 6.76911  -2
  11   9   8 -2.5837 6.76911   1
 -12   9  13 14.4259 5.11056  -2
  12   9   8 14.4259 5.11056   1
 -13  10   8 21.9770 10.4902   2
 -13  10   8 7.07136 7.56620   1
  12  10   3 77.9318 5.00477  -2
 -12  10   8 77.9318 5.00477   1
  11  10   3 28.3798 8.50585  -2
 -11  10   8 28.3798 8.50585   1
  10  10   4 98.0177 5.87485  -2
 -10  10   8 98.0177 5.87485   1
   9  10   4 70.3649 6.17745  -2
  -9  10   8 70.3649 6.17745   1
   8  10   5 158.453 9.03716  -2
  -8  10   8 158.453 9.03716   1
   7  10   5 79.1709 4.37730  -2
  -7  10   8 79.1709 4.37730   1
   6  10   5 93.7830 9.68978  -2
  -6  10   8 93.7830 9.68978   1
  -6  10   8 0.03444 5.94008   2
   6  10   6 39.0859 11.4597  -2
  -6  10   8 39.0859 11.4597   1
   5  10   6 44.7948 3.54739  -2
  -5  10   8 44.7948 3.54739   1
   4  10   6 236.619 8.31607  -2
  -4  10   8 236.619 8.31607   1
   3  10   7 133.216 5.58278  -2
  -3  10   8 133.216 5.58278   1
   2  10   7 171.711 7.03713  -2
  -2  10   8 171.711 7.03713   1
   1  10   8 170.491 8.14745  -2
  -1  10   8 170.491 8.14745   1
  -1  10   8 133.356 7.14708   2
   0  10   8 634.648 17.0877  -2
   0  10   8 634.648 17.0877   1
  -1  10   8 187.170 10.8480  -2
   1  10   8 187.170 10.8480   1
   1  10   8 35.5312 8.23580   1
  -2  10   9 178.769 6.00831  -2
   2  10   8 178.769 6.00831   1
  -3  10   9 81.8250 5.40277  -2
   3  10   8 81.8250 5.40277   1
  -4  10  10 393.064 13.8438  -2
   4  10   8 393.064 13.8438   1
  -5  10  10 35.7729 3.62358  -2
   5  10   8 35.7729 3.62358   1
   6  10   8 1.49889 6.02270   1
  -6  10  11 21.2905 51.2012  -2
   6  10   8 21.2905 51.2012   1
  -6  10  10 25.1201 9.10389  -2
   6  10   8 25.1201 9.10389   1
  -7  10  11 20.4863 2.89596  -2
   7  10   8 20.4863 2.89596   1
  -8  10  11 69.3798 7.28511  -2
   8  10   8 69.3798 7.28511   1
  -9  10  12 28.8404 6.05633  -2
   9  10   8 28.8404 6.05633   1
 -10  10  12 35.9946 4.90911  -2
  10  10   8 35.9946 4.90911   1
 -11  10  13 15.9810 5.86960  -2
  11  10   8 15.9810 5.86960   1
  12  11   3 -1.0763 3.45659  -2
 -12  11   8 -1.0763 3.45659   1
  11  11   3 12.5861 12.3184  -2
 -11  11   8 12.5861 12.3184   1
  10  11   4 106.703 5.81692  -2
 -10  11   8 106.703 5.81692   1
   9  11   4 115.144 7.59158  -2
  -9  11   8 115.144 7.59158   1
   8  11   5 39.4083 5.87453  -2
  -8  11   8 39.4083 5.87453   1
   7  11   5 51.3358 3.15299  -2
  -7  11   8 51.3358 3.15299   1
   6  11   6 84.1569 16.0816  -2
  -6  11   8 84.1569 16.0816   1
  -6  11   8 79.5437 13.8792   2
   5  11   6 343.963 11.1570  -2
  -5  11   8 343.963 11.1570   1
   4  11   6 102.726 4.95199  -2
  -4  11   8 102.726 4.95199   1
   3  11   7 267.187 9.29275  -2
  -3  11   8 267.187 9.29275   1
   2  11   7 231.352 8.68393  -2
  -2  11   8 231.352 8.68393   1
  -1  11   8 160.630 9.29982   2
  -1  11   8 145.839 21.1839   1
   1  11   8 232.026 10.3214  -2
  -1  11   8 232.026 10.3214   1
   0  11   8 -1.9554 1.50522  -2
   0  11   8 -1.9554 1.50522   1
   1  11   8 50.6337 15.4222   1
  -1  11   8 249.654 13.1046  -2
   1  11   8 249.654 13.1046   1
   1  11   8 83.9727 16.4513   2
  -2  11   9 261.527 8.04724  -2
   2  11   8 261.527 8.04724   1
  -3  11   9 193.404 8.95479  -2
   3  11   8 193.404 8.95479   1
  -4  11  10 51.9924 5.26148  -2
   4  11   8 51.9924 5.26148   1
  -5  11  10 33.6355 3.33399  -2
   5  11   8 33.6355 3.33399   1
  -6  11  10 37.4026 9.92178  -2
   6  11   8 37.4026 9.92178   1
  -6  11  11 -55.645 60.4684  -2
   6  11   8 -55.645 60.4684   1
  -7  11  11 211.439 10.8123  -2
   7  11   8 211.439 10.8123   1
  -8  11  11 38.2701 5.86179  -2
   8  11   8 38.2701 5.86179   1
  -9  11  12 17.0781 4.22370  -2
   9  11   8 17.0781 4.22370   1
 -10  11  12 11.6295 4.51295  -2
  10  11   8 11.6295 4.51295   1
 -11  11  12 159.075 22.1088  -2
  11  11   8 159.075 22.1088   1
 -11  11  13 58.7760 8.35534  -2
  11  11   8 58.7760 8.35534   1
  11  12   3 15.5114 11.1274  -2
 -11  12   8 15.5114 11.1274   1
  10  12   4 9.14526 4.84736  -2
 -10  12   8 9.14526 4.84736   1
   9  12   4 5.09638 3.28655  -2
  -9  12   8 5.09638 3.28655   1
   8  12   5 27.3401 6.03392  -2
  -8  12   8 27.3401 6.03392   1
   7  12   5 92.6739 4.87800  -2
  -7  12   8 92.6739 4.87800   1
   5  12   6 1.19062 2.22586  -2
  -5  12   8 1.19062 2.22586   1
   4  12   6 81.5238 5.56549  -2
  -4  12   8 81.5238 5.56549   1
   3  12   7 177.371 6.85268  -2
  -3  12   8 177.371 6.85268   1
   2  12   7 171.810 6.41624  -2
  -2  12   8 171.810 6.41624   1
  -1  12   8 0.23358 1.18852   2
   1  12   8 -0.7136 7.70566  -2
  -1  12   8 -0.7136 7.70566   1
   0  12   8 63.2037 3.80765  -2
   0  12   8 63.2037 3.80765   1
  -1  12   8 0.92344 5.39862  -2
   1  12   8 0.92344 5.39862   1
  -2  12   9 65.0504 3.86155  -2
   2  12   8 65.0504 3.86155   1
  -3  12   9 23.5969 3.65763  -2
   3  12   8 23.5969 3.65763   1
  -4  12  10 8.36845 4.21131  -2
   4  12   8 8.36845 4.21131   1
  -5  12  10 39.8523 3.80189  -2
   5  12   8 39.8523 3.80189   1
  -6  12  11 -2.5070 13.3650  -2
   6  12   8 -2.5070 13.3650   1
  -7  12  11 18.6236 3.07130  -2
   7  12   8 18.6236 3.07130   1
  -8  12  11 17.9372 6.05909  -2
   8  12   8 17.9372 6.05909   1
  -9  12  12 18.4977 4.15960  -2
   9  12   8 18.4977 4.15960   1
 -10  12  12 3.15647 5.26132  -2
  10  12   8 3.15647 5.26132   1
  10  13   4 140.244 13.0764  -2
 -10  13   8 140.244 13.0764   1
   9  13   4 -3.6418 4.51435  -2
  -9  13   8 -3.6418 4.51435   1
   8  13   5 110.432 10.8826  -2
  -8  13   8 110.432 10.8826   1
   7  13   5 46.4950 3.16375  -2
  -7  13   8 46.4950 3.16375   1
   5  13   6 17.4224 2.86158  -2
  -5  13   8 17.4224 2.86158   1
   4  13   6 73.2319 6.47390  -2
  -4  13   8 73.2319 6.47390   1
   3  13   7 178.165 10.8936  -2
  -3  13   8 178.165 10.8936   1
   2  13   7 209.574 7.91797  -2
  -2  13   8 209.574 7.91797   1
   1  13   8 52.4615 7.83428  -2
  -1  13   8 52.4615 7.83428   1
  -1  13   8 1.61840 6.32962   1
   0  13   8 37.9267 3.60105  -2
   0  13   8 37.9267 3.60105   1
  -1  13   8 60.3614 8.56091  -2
   1  13   8 60.3614 8.56091   1
  -2  13   9 28.7367 4.48160  -2
   2  13   8 28.7367 4.48160   1
  -3  13   9 5.24924 5.00813  -2
   3  13   8 5.24924 5.00813   1
  -4  13  10 -1.5905 6.06934  -2
   4  13   8 -1.5905 6.06934   1
  -5  13  10 1.12006 4.03961  -2
   5  13   8 1.12006 4.03961   1
  -6  13  11 86.1200 18.3629  -2
   6  13   8 86.1200 18.3629   1
  -6  13  10 108.945 14.8097  -2
   6  13   8 108.945 14.8097   1
  -7  13  11 73.3213 4.76178  -2
   7  13   8 73.3213 4.76178   1
  -8  13  11 10.4685 6.80312  -2
   8  13   8 10.4685 6.80312   1
  -9  13  12 -3.7175 5.33272  -2
   9  13   8 -3.7175 5.33272   1
   9  14   4 5.29745 4.90169  -2
  -9  14   8 5.29745 4.90169   1
   8  14   5 11.5947 10.4307  -2
  -8  14   8 11.5947 10.4307   1
   7  14   5 89.5593 4.10352  -2
  -7  14   8 89.5593 4.10352   1
   5  14   6 1.72133 2.82036  -2
  -5  14   8 1.72133 2.82036   1
   4  14   6 127.919 7.25484  -2
  -4  14   8 127.919 7.25484   1
   3  14   7 134.086 6.58098  -2
  -3  14   8 134.086 6.58098   1
   2  14   7 115.856 5.67851  -2
  -2  14   8 115.856 5.67851   1
   1  14   8 6.91665 11.8088  -2
  -1  14   8 6.91665 11.8088   1
   1  14   7 117.176 21.4676  -2
  -1  14   8 117.176 21.4676   1
   0  14   8 345.644 12.6206  -2
   0  14   8 345.644 12.6206   1
  -1  14   8 15.2485 10.4707  -2
   1  14   8 15.2485 10.4707   1
  -2  14   9 143.968 9.91435  -2
   2  14   8 143.968 9.91435   1
  -3  14   9 126.435 6.99743  -2
   3  14   8 126.435 6.99743   1
  -4  14  10 387.868 15.5659  -2
   4  14   8 387.868 15.5659   1
  -5  14  10 9.27699 3.53538  -2
   5  14   8 9.27699 3.53538   1
   6  14   8 73.4355 13.8690   1
  -7  14  11 22.7999 3.27098  -2
   7  14   8 22.7999 3.27098   1
  -8  14  11 0.80546 7.57391  -2
   8  14   8 0.80546 7.57391   1
   8  15   5 8.88175 7.43882  -2
  -8  15   8 8.88175 7.43882   1
   7  15   5 7.41138 2.60287  -2
  -7  15   8 7.41138 2.60287   1
   5  15   6 41.5343 3.68110  -2
  -5  15   8 41.5343 3.68110   1
   4  15   6 5.30817 3.83817  -2
  -4  15   8 5.30817 3.83817   1
   3  15   7 2.62147 4.12075  -2
  -3  15   8 2.62147 4.12075   1
   2  15   7 4.19378 4.04227  -2
  -2  15   8 4.19378 4.04227   1
   1  15   8 -7.8182 12.1321  -2
  -1  15   8 -7.8182 12.1321   1
   0  15   8 31.4627 3.18012  -2
   0  15   8 31.4627 3.18012   1
  -1  15   8 -6.7949 8.18444  -2
   1  15   8 -6.7949 8.18444   1
  -2  15   9 1.50802 3.96861  -2
   2  15   8 1.50802 3.96861   1
  -3  15   9 3.32712 4.41754  -2
   3  15   8 3.32712 4.41754   1
  -4  15  10 63.7333 5.52646  -2
   4  15   8 63.7333 5.52646   1
  -5  15  10 6.76661 3.71962  -2
   5  15   8 6.76661 3.71962   1
  -7  15  11 14.4070 4.42871  -2
   7  15   8 14.4070 4.42871   1
   5  16   6 16.1027 4.73301  -2
  -5  16   8 16.1027 4.73301   1
   4  16   6 34.3455 5.07971  -2
  -4  16   8 34.3455 5.07971   1
   3  16   7 8.39530 4.82983  -2
  -3  16   8 8.39530 4.82983   1
   2  16   7 32.2814 4.20961  -2
  -2  16   8 32.2814 4.20961   1
   1  16   8 89.0505 12.7206  -2
  -1  16   8 89.0505 12.7206   1
   0  16   8 17.8580 2.82089  -2
   0  16   8 17.8580 2.82089   1
  -1  16   8 88.2924 13.2048  -2
   1  16   8 88.2924 13.2048   1
  -2  16   9 79.9462 5.57204  -2
   2  16   8 79.9462 5.57204   1
  -3  16   9 28.0166 5.37103  -2
   3  16   8 28.0166 5.37103   1
  -4  16  10 7.09329 7.39080  -2
   4  16   8 7.09329 7.39080   1
  -5  16  10 4.34769 4.82363  -2
   5  16   8 4.34769 4.82363   1
   3  17   7 20.2359 5.73362  -2
  -3  17   8 20.2359 5.73362   1
   2  17   7 3.90199 9.07308  -2
  -2  17   8 3.90199 9.07308   1
   1  17   8 90.5919 18.5732  -2
  -1  17   8 90.5919 18.5732   1
   0  17   8 36.0056 4.82024  -2
   0  17   8 36.0056 4.82024   1
  -1  17   8 49.9855 15.9443  -2
   1  17   8 49.9855 15.9443   1
  -2  17   9 57.6421 6.24981  -2
   2  17   8 57.6421 6.24981   1
  15   0   3 13.0824 13.7421  -2
 -15   0   9 13.0824 13.7421   1
  14   0   3 4.20916 6.09350  -2
 -14   0   9 4.20916 6.09350   1
  12   0   4 26.8200 3.48703  -2
 -12   0   9 26.8200 3.48703   1
  11   0   4 11.9823 4.82363  -2
 -11   0   9 11.9823 4.82363   1
  10   0   5 1.04458 4.23484  -2
 -10   0   9 1.04458 4.23484   1
   9   0   5 322.919 17.1135  -2
  -9   0   9 322.919 17.1135   1
   8   0   6 6.69400 5.86261  -2
  -8   0   9 6.69400 5.86261   1
   7   0   6 418.354 18.2459  -2
  -7   0   9 418.354 18.2459   1
  -6   0   9 -2.1476 2.46032   1
   6   0   6 -8.7198 5.61315  -2
  -6   0   9 -8.7198 5.61315   1
   5   0   7 445.160 14.8699  -2
  -5   0   9 445.160 14.8699   1
   4   0   7 4.84624 2.22870  -2
  -4   0   9 4.84624 2.22870   1
  -4   0   9 2.51966 2.51820   1
   3   0   8 66.0705 3.43597  -2
  -3   0   9 66.0705 3.43597   1
   2   0   8 44.3800 2.68819  -2
  -2   0   9 44.3800 2.68819   1
   1   0   9 852.881 31.0064  -2
  -1   0   9 852.881 31.0064   1
  -1   0   9 5.19650 16.9030   1
  -1   0   9 74.8038 26.5960   2
   0   0   9 3.62920 1.10026  -2
   0   0   9 3.62920 1.10026   1
  -1   0   9 682.545 23.1136  -2
   1   0   9 682.545 23.1136   1
   1   0   9 814.584 114.024   1
  -2   0  10 231.576 10.6495  -2
   2   0   9 231.576 10.6495   1
  -3   0  10 297.790 12.6926  -2
   3   0   9 297.790 12.6926   1
  -4   0  11 1.12136 2.99865  -2
   4   0   9 1.12136 2.99865   1
  -5   0  11 924.681 32.6938  -2
   5   0   9 924.681 32.6938   1
  -6   0  12 189.160 10.8189  -2
   6   0   9 189.160 10.8189   1
   6   0   9 0.58862 3.14935   2
  -7   0  12 928.763 40.4407  -2
   7   0   9 928.763 40.4407   1
  -8   0  12 51.3177 5.25942  -2
   8   0   9 51.3177 5.25942   1
  -9   0  13 417.261 25.6091  -2
   9   0   9 417.261 25.6091   1
 -10   0  13 2.98851 3.20158  -2
  10   0   9 2.98851 3.20158   1
 -11   0  14 90.7276 11.7968  -2
  11   0   9 90.7276 11.7968   1
 -12   0  14 48.1310 6.91016  -2
  12   0   9 48.1310 6.91016   1
 -14   0  15 3.90899 6.16059  -2
  14   0   9 3.90899 6.16059   1
  15   1   3 -8.1488 12.5567  -2
 -15   1   9 -8.1488 12.5567   1
  14   1   3 21.8082 4.76000  -2
 -14   1   9 21.8082 4.76000   1
  12   1   4 253.126 9.87223  -2
 -12   1   9 253.126 9.87223   1
  11   1   4 232.041 9.32323  -2
 -11   1   9 232.041 9.32323   1
  10   1   5 84.8055 3.48599  -2
 -10   1   9 84.8055 3.48599   1
   9   1   5 4.80103 1.82276  -2
  -9   1   9 4.80103 1.82276   1
   8   1   6 233.840 8.33615  -2
  -8   1   9 233.840 8.33615   1
   7   1   6 954.586 24.9784  -2
  -7   1   9 954.586 24.9784   1
  -6   1   9 524.766 17.2184   1
   6   1   6 583.592 24.2025  -2
  -6   1   9 583.592 24.2025   1
  -6   1   9 680.150 71.3315   2
   5   1   7 393.356 10.4119  -2
  -5   1   9 393.356 10.4119   1
   4   1   7 293.609 7.67501  -2
  -4   1   9 293.609 7.67501   1
   3   1   8 457.279 10.1068  -2
  -3   1   9 457.279 10.1068   1
   2   1   8 777.234 18.9201  -2
  -2   1   9 777.234 18.9201   1
  -1   1   9 40.4504 10.8998   2
   1   1   9 240.267 8.40044  -2
  -1   1   9 240.267 8.40044   1
  -1   1   9 30.8868 11.7397   1
   0   1   9 117.388 3.46467  -2
   0   1   9 117.388 3.46467   1
  -1   1   9 207.829 6.12564  -2
   1   1   9 207.829 6.12564   1
   1   1   9 229.210 32.8669   2
   1   1   9 178.907 24.3504   1
  -2   1  10 345.185 9.66390  -2
   2   1   9 345.185 9.66390   1
  -3   1  10 141.154 4.74214  -2
   3   1   9 141.154 4.74214   1
  -4   1  11 235.524 7.52958  -2
   4   1   9 235.524 7.52958   1
  -5   1  11 72.6902 3.24465  -2
   5   1   9 72.6902 3.24465   1
   6   1   9 299.402 15.0777   2
  -6   1  12 300.108 20.9774  -2
   6   1   9 300.108 20.9774   1
   6   1   9 211.624 19.5986   1
  -7   1  12 54.1827 3.52292  -2
   7   1   9 54.1827 3.52292   1
  -8   1  12 31.6263 3.94080  -2
   8   1   9 31.6263 3.94080   1
  -9   1  13 11.3534 3.11382  -2
   9   1   9 11.3534 3.11382   1
 -10   1  13 196.523 7.45806  -2
  10   1   9 196.523 7.45806   1
 -11   1  14 57.2107 7.03298  -2
  11   1   9 57.2107 7.03298   1
 -12   1  14 47.8339 4.87018  -2
  12   1   9 47.8339 4.87018   1
 -13   1  14 5.23005 11.2926  -2
  13   1   9 5.23005 11.2926   1
 -14   1  15 41.9451 5.06343  -2
  14   1   9 41.9451 5.06343   1
  14   2   3 127.494 7.88047  -2
 -14   2   9 127.494 7.88047   1
  12   2   4 53.0725 4.45281  -2
 -12   2   9 53.0725 4.45281   1
  11   2   4 109.194 6.89866  -2
 -11   2   9 109.194 6.89866   1
  10   2   5 379.770 12.3607  -2
 -10   2   9 379.770 12.3607   1
   9   2   5 490.095 15.1614  -2
  -9   2   9 490.095 15.1614   1
   8   2   6 73.8516 4.49565  -2
  -8   2   9 73.8516 4.49565   1
  -8   2   9 41.7623 23.9715   2
   7   2   6 152.838 5.40809  -2
  -7   2   9 152.838 5.40809   1
  -6   2   9 125.539 5.48146   1
   6   2   6 112.527 9.12090  -2
  -6   2   9 112.527 9.12090   1
  -6   2   9 170.972 36.7143   2
   6   2   7 221.255 25.1468  -2
  -6   2   9 221.255 25.1468   1
   5   2   7 806.582 20.3512  -2
  -5   2   9 806.582 20.3512   1
   4   2   7 121.866 3.45738  -2
  -4   2   9 121.866 3.45738   1
   3   2   8 475.650 11.2341  -2
  -3   2   9 475.650 11.2341   1
   2   2   8 1109.27 27.4585  -2
  -2   2   9 1109.27 27.4585   1
   1   2   9 521.389 13.9547  -2
  -1   2   9 521.389 13.9547   1
  -1   2   9 291.486 14.6710   2
   1   2   8 364.010 30.5091  -2
  -1   2   9 364.010 30.5091   1
  -1   2   9 204.772 29.7726   1
   0   2   9 230.722 5.80002  -2
   0   2   9 230.722 5.80002   1
  -1   2   9 525.178 13.5986  -2
   1   2   9 525.178 13.5986   1
   1   2   9 242.917 12.1797   1
   1   2   9 270.168 35.8930   2
  -2   2  10 57.7555 2.41894  -2
   2   2   9 57.7555 2.41894   1
  -3   2  10 289.163 8.53738  -2
   3   2   9 289.163 8.53738   1
  -4   2  11 106.911 4.53987  -2
   4   2   9 106.911 4.53987   1
  -5   2  11 1032.60 25.6896  -2
   5   2   9 1032.60 25.6896   1
  -6   2  12 167.013 8.08670  -2
   6   2   9 167.013 8.08670   1
   6   2   9 125.757 7.49025   2
   6   2   9 90.2178 32.1201   1
  -7   2  12 226.751 8.88081  -2
   7   2   9 226.751 8.88081   1
  -8   2  12 173.930 7.69276  -2
   8   2   9 173.930 7.69276   1
  -9   2  13 313.593 9.84301  -2
   9   2   9 313.593 9.84301   1
 -10   2  13 35.9672 4.22970  -2
  10   2   9 35.9672 4.22970   1
 -11   2  14 42.1547 4.75771  -2
  11   2   9 42.1547 4.75771   1
 -12   2  14 5.21896 4.02680  -2
  12   2   9 5.21896 4.02680   1
 -13   2  15 17.2887 15.2484  -2
  13   2   9 17.2887 15.2484   1
 -14   2  15 42.1631 6.75026  -2
  14   2   9 42.1631 6.75026   1
  15   3   3 -2.2665 8.63189  -2
 -15   3   9 -2.2665 8.63189   1
  14   3   3 15.7937 4.67341  -2
 -14   3   9 15.7937 4.67341   1
 -13   3   9 36.3445 10.6429   2
  12   3   4 56.9709 3.84178  -2
 -12   3   9 56.9709 3.84178   1
  11   3   4 32.8618 3.08428  -2
 -11   3   9 32.8618 3.08428   1
  10   3   5 20.3416 3.12522  -2
 -10   3   9 20.3416 3.12522   1
   9   3   5 31.2269 3.04310  -2
  -9   3   9 31.2269 3.04310   1
   8   3   6 4.02703 3.29552  -2
  -8   3   9 4.02703 3.29552   1
   7   3   6 3.96495 2.06795  -2
  -7   3   9 3.96495 2.06795   1
  -6   3   9 1.10089 1.41457   1
  -6   3   9 1.04763 2.12602   2
   6   3   6 66.5200 6.44371  -2
  -6   3   9 66.5200 6.44371   1
   5   3   7 823.069 21.6690  -2
  -5   3   9 823.069 21.6690   1
   4   3   7 400.686 9.56411  -2
  -4   3   9 400.686 9.56411   1
   3   3   8 231.260 5.89933  -2
  -3   3   9 231.260 5.89933   1
   2   3   8 51.9448 2.73343  -2
  -2   3   9 51.9448 2.73343   1
  -1   3   9 73.5369 6.17474   2
   1   3   9 96.4187 3.79857  -2
  -1   3   9 96.4187 3.79857   1
  -1   3   9 42.6596 5.59999   1
   0   3   9 1796.02 38.4419  -2
   0   3   9 1796.02 38.4419   1
  -1   3   9 102.240 3.48734  -2
   1   3   9 102.240 3.48734   1
   1   3   9 22.9194 3.20492   1
   1   3   9 17.2476 4.39674   2
  -2   3  10 44.3363 2.03997  -2
   2   3   9 44.3363 2.03997   1
  -3   3  10 404.979 11.5895  -2
   3   3   9 404.979 11.5895   1
  -4   3  11 1004.60 25.6634  -2
   4   3   9 1004.60 25.6634   1
  -5   3  11 135.981 4.45366  -2
   5   3   9 135.981 4.45366   1
   6   3   9 44.2622 5.66100   2
  -6   3  12 80.7099 7.71942  -2
   6   3   9 80.7099 7.71942   1
  -7   3  12 121.486 5.32837  -2
   7   3   9 121.486 5.32837   1
  -8   3  12 58.7209 3.94275  -2
   8   3   9 58.7209 3.94275   1
  -9   3  13 6.62528 2.38831  -2
   9   3   9 6.62528 2.38831   1
 -10   3  13 92.1250 5.07935  -2
  10   3   9 92.1250 5.07935   1
 -11   3  14 84.2373 7.20183  -2
  11   3   9 84.2373 7.20183   1
 -12   3  14 15.5916 4.02042  -2
  12   3   9 15.5916 4.02042   1
 -13   3  15 11.4359 14.9747  -2
  13   3   9 11.4359 14.9747   1
 -13   3  14 49.3413 9.54470  -2
  13   3   9 49.3413 9.54470   1
 -14   3  15 48.0840 6.86582  -2
  14   3   9 48.0840 6.86582   1
  15   4   3 51.6817 15.2585  -2
 -15   4   9 51.6817 15.2585   1
  14   4   3 56.6355 5.84282  -2
 -14   4   9 56.6355 5.84282   1
 -13   4   9 81.3792 15.0863   2
  12   4   4 10.7556 3.39136  -2
 -12   4   9 10.7556 3.39136   1
  11   4   4 126.618 6.13387  -2
 -11   4   9 126.618 6.13387   1
  10   4   5 232.269 9.44607  -2
 -10   4   9 232.269 9.44607   1
   9   4   5 784.395 24.5247  -2
  -9   4   9 784.395 24.5247   1
   8   4   6 133.113 5.72150  -2
  -8   4   9 133.113 5.72150   1
   7   4   6 214.786 8.86761  -2
  -7   4   9 214.786 8.86761   1
   6   4   6 334.383 14.4559  -2
  -6   4   9 334.383 14.4559   1
  -6   4   9 4.31106 1.98875   1
  -6   4   9 -2.6826 4.95429   2
   5   4   7 900.802 22.4021  -2
  -5   4   9 900.802 22.4021   1
   4   4   7 421.963 9.89111  -2
  -4   4   9 421.963 9.89111   1
   3   4   8 459.215 11.2727  -2
  -3   4   9 459.215 11.2727   1
   2   4   8 160.709 4.88596  -2
  -2   4   9 160.709 4.88596   1
  -1   4   9 515.225 26.1619   2
  -1   4   9 354.461 15.8945   1
   1   4   9 587.920 22.0974  -2
  -1   4   9 587.920 22.0974   1
   0   4   9 322.056 7.64381  -2
   0   4   9 322.056 7.64381   1
  -1   4   9 612.508 17.1151  -2
   1   4   9 612.508 17.1151   1
   1   4   9 98.4810 7.04484   1
   1   4   9 140.586 7.76151   2
  -2   4  10 256.969 6.58654  -2
   2   4   9 256.969 6.58654   1
  -3   4  10 336.851 8.79772  -2
   3   4   9 336.851 8.79772   1
  -4   4  11 192.540 5.83492  -2
   4   4   9 192.540 5.83492   1
  -5   4  11 157.167 5.61321  -2
   5   4   9 157.167 5.61321   1
  -6   4  12 271.396 15.5488  -2
   6   4   9 271.396 15.5488   1
   6   4   9 -2.2407 16.7437   1
   6   4   9 30.2502 3.41886   2
  -7   4  12 365.229 10.7917  -2
   7   4   9 365.229 10.7917   1
  -8   4  12 20.1615 3.60818  -2
   8   4   9 20.1615 3.60818   1
  -9   4  13 66.2167 3.63432  -2
   9   4   9 66.2167 3.63432   1
 -10   4  13 95.1630 5.23357  -2
  10   4   9 95.1630 5.23357   1
 -11   4  14 115.633 13.2122  -2
  11   4   9 115.633 13.2122   1
 -12   4  14 29.6781 4.89481  -2
  12   4   9 29.6781 4.89481   1
 -13   4  14 139.340 13.1071  -2
  13   4   9 139.340 13.1071   1
  13   4   9 37.3775 10.7576   1
 -14   4  15 32.8423 5.56145  -2
  14   4   9 32.8423 5.56145   1
  15   5   3 8.17428 9.92533  -2
 -15   5   9 8.17428 9.92533   1
  14   5   3 54.1806 5.66815  -2
 -14   5   9 54.1806 5.66815   1
 -13   5   9 12.4858 8.05385   2
  12   5   4 200.974 9.67734  -2
 -12   5   9 200.974 9.67734   1
  11   5   4 110.855 5.43459  -2
 -11   5   9 110.855 5.43459   1
  10   5   5 36.0532 4.14719  -2
 -10   5   9 36.0532 4.14719   1
   9   5   5 42.0633 3.72656  -2
  -9   5   9 42.0633 3.72656   1
   8   5   6 324.029 10.7804  -2
  -8   5   9 324.029 10.7804   1
   7   5   6 585.558 19.9089  -2
  -7   5   9 585.558 19.9089   1
  -6   5   9 6.65346 2.34472   1
  -6   5   9 0.75119 2.23903   2
   6   5   6 15.3263 4.84270  -2
  -6   5   9 15.3263 4.84270   1
   5   5   7 18.3924 1.58621  -2
  -5   5   9 18.3924 1.58621   1
   4   5   7 294.752 7.47066  -2
  -4   5   9 294.752 7.47066   1
   3   5   8 1551.24 34.1887  -2
  -3   5   9 1551.24 34.1887   1
   2   5   8 1389.44 38.3721  -2
  -2   5   9 1389.44 38.3721   1
  -1   5   9 113.467 6.30828   2
  -1   5   9 108.780 4.88250   1
   1   5   9 153.286 7.17698  -2
  -1   5   9 153.286 7.17698   1
   0   5   9 975.403 21.8937  -2
   0   5   9 975.403 21.8937   1
  -1   5   9 157.956 5.98796  -2
   1   5   9 157.956 5.98796   1
   1   5   9 34.2269 2.79883   1
   1   5   9 49.7583 4.37819   2
  -2   5  10 1681.71 42.5534  -2
   2   5   9 1681.71 42.5534   1
  -3   5  10 1814.50 44.0708  -2
   3   5   9 1814.50 44.0708   1
  -4   5  11 533.029 17.4512  -2
   4   5   9 533.029 17.4512   1
  -5   5  11 80.4376 5.56717  -2
   5   5   9 80.4376 5.56717   1
  -6   5  12 79.8172 5.98766  -2
   6   5   9 79.8172 5.98766   1
   6   5   9 54.2702 10.6873   1
   6   5   9 97.8793 7.43579   2
  -7   5  12 776.114 21.4335  -2
   7   5   9 776.114 21.4335   1
  -8   5  12 140.330 8.61318  -2
   8   5   9 140.330 8.61318   1
  -9   5  13 89.8184 4.32816  -2
   9   5   9 89.8184 4.32816   1
 -10   5  13 93.6506 5.54899  -2
  10   5   9 93.6506 5.54899   1
 -11   5  14 116.478 10.3481  -2
  11   5   9 116.478 10.3481   1
  11   5   9 15.3958 9.05189   1
 -12   5  14 79.2597 5.59764  -2
  12   5   9 79.2597 5.59764   1
 -13   5  14 1.79527 8.96210  -2
  13   5   9 1.79527 8.96210   1
  13   5   9 25.5868 10.4028   1
  14   6   3 -6.1670 4.93148  -2
 -14   6   9 -6.1670 4.93148   1
  12   6   4 16.6949 3.78361  -2
 -12   6   9 16.6949 3.78361   1
  11   6   4 67.0399 9.06978  -2
 -11   6   9 67.0399 9.06978   1
  10   6   5 -6.1790 2.89405  -2
 -10   6   9 -6.1790 2.89405   1
   9   6   5 73.2749 4.72885  -2
  -9   6   9 73.2749 4.72885   1
   8   6   6 34.2933 3.84866  -2
  -8   6   9 34.2933 3.84866   1
  -8   6   9 -2.3330 17.7396   2
   7   6   6 296.540 9.51995  -2
  -7   6   9 296.540 9.51995   1
  -6   6   9 10.0939 1.25909   2
   6   6   6 34.2687 2.79146  -2
  -6   6   9 34.2687 2.79146   1
  -6   6   9 3.06814 3.17869   1
   5   6   7 4.36189 1.77895  -2
  -5   6   9 4.36189 1.77895   1
   4   6   7 205.160 5.93584  -2
  -4   6   9 205.160 5.93584   1
   3   6   8 300.640 7.94683  -2
  -3   6   9 300.640 7.94683   1
   2   6   8 270.652 7.66303  -2
  -2   6   9 270.652 7.66303   1
   1   6   9 467.547 18.3319  -2
  -1   6   9 467.547 18.3319   1
  -1   6   9 332.180 14.7989   1
  -1   6   9 429.833 34.4871   2
   0   6   9 314.773 8.25432  -2
   0   6   9 314.773 8.25432   1
  -1   6   9 522.199 17.5512  -2
   1   6   9 522.199 17.5512   1
   1   6   9 105.552 5.21773   2
   1   6   9 85.2514 6.12238   1
  -2   6  10 765.120 19.2513  -2
   2   6   9 765.120 19.2513   1
  -3   6  10 522.807 15.8039  -2
   3   6   9 522.807 15.8039   1
  -4   6  11 123.176 7.89406  -2
   4   6   9 123.176 7.89406   1
  -5   6  11 104.689 4.87753  -2
   5   6   9 104.689 4.87753   1
   6   6   9 12.9456 5.96035   1
  -6   6  12 113.839 14.6704  -2
   6   6   9 113.839 14.6704   1
   6   6   9 18.0489 3.41333   2
  -7   6  12 87.1540 4.78298  -2
   7   6   9 87.1540 4.78298   1
  -8   6  12 11.5639 2.14559  -2
   8   6   9 11.5639 2.14559   1
  -9   6  13 67.8070 3.21444  -2
   9   6   9 67.8070 3.21444   1
 -10   6  13 30.6077 7.25572  -2
  10   6   9 30.6077 7.25572   1
 -11   6  14 29.1251 5.49603  -2
  11   6   9 29.1251 5.49603   1
 -12   6  14 52.4468 4.41790  -2
  12   6   9 52.4468 4.41790   1
 -13   6  14 0.17575 8.41086  -2
  13   6   9 0.17575 8.41086   1
  13   6   9 -9.3969 8.07745   1
  14   7   3 40.9125 7.47039  -2
 -14   7   9 40.9125 7.47039   1
  12   7   4 110.597 5.91704  -2
 -12   7   9 110.597 5.91704   1
  11   7   4 22.3979 6.08567  -2
 -11   7   9 22.3979 6.08567   1
  10   7   5 6.76405 2.84237  -2
 -10   7   9 6.76405 2.84237   1
   9   7   5 132.212 6.28848  -2
  -9   7   9 132.212 6.28848   1
   8   7   6 90.6472 5.62819  -2
  -8   7   9 90.6472 5.62819   1
  -8   7   9 39.0882 23.3827   2
   7   7   6 53.0978 2.54996  -2
  -7   7   9 53.0978 2.54996   1
  -6   7   9 216.661 18.2487   2
  -6   7   9 144.396 12.2655   1
   6   7   6 323.247 23.5980  -2
  -6   7   9 323.247 23.5980   1
   5   7   7 302.680 10.2576  -2
  -5   7   9 302.680 10.2576   1
   4   7   7 44.8766 2.51132  -2
  -4   7   9 44.8766 2.51132   1
   3   7   8 147.032 6.19199  -2
  -3   7   9 147.032 6.19199   1
   2   7   8 198.208 5.79585  -2
  -2   7   9 198.208 5.79585   1
   1   7   9 171.048 6.51874  -2
  -1   7   9 171.048 6.51874   1
  -1   7   9 6.52479 1.77781   1
  -1   7   9 1.08334 2.13763   2
   0   7   9 30.7501 1.83515  -2
   0   7   9 30.7501 1.83515   1
   1   7   9 200.135 9.85239   2
  -1   7   9 152.837 9.69015  -2
   1   7   9 152.837 9.69015   1
   1   7   9 158.595 10.2326   1
  -2   7  10 124.481 5.41598  -2
   2   7   9 124.481 5.41598   1
  -3   7  10 222.731 11.2434  -2
   3   7   9 222.731 11.2434   1
  -4   7  11 142.076 6.03730  -2
   4   7   9 142.076 6.03730   1
   4   7   9 47.0149 4.78370   2
  -5   7  11 55.5533 3.67295  -2
   5   7   9 55.5533 3.67295   1
  -6   7  12 480.398 45.4810  -2
   6   7   9 480.398 45.4810   1
   6   7   9 206.092 21.0932   1
  -7   7  12 10.0990 2.50134  -2
   7   7   9 10.0990 2.50134   1
  -8   7  12 14.3327 5.12534  -2
   8   7   9 14.3327 5.12534   1
  -9   7  13 76.2068 6.55464  -2
   9   7   9 76.2068 6.55464   1
 -10   7  13 83.7140 6.07689  -2
  10   7   9 83.7140 6.07689   1
 -11   7  14 4.51703 5.23453  -2
  11   7   9 4.51703 5.23453   1
 -12   7  14 3.79339 3.49234  -2
  12   7   9 3.79339 3.49234   1
 -13   7  14 22.7254 16.0097  -2
  13   7   9 22.7254 16.0097   1
 -13   7  15 38.7959 19.0520  -2
 -13   7  14 38.7959 19.0520  -2
  13   7   9 38.7959 19.0520   1
  13   7   9 -2.1941 6.92277   1
  12   8   4 25.4528 3.49674  -2
 -12   8   9 25.4528 3.49674   1
  11   8   4 81.2004 9.18561  -2
 -11   8   9 81.2004 9.18561   1
  10   8   5 124.935 6.88834  -2
 -10   8   9 124.935 6.88834   1
   9   8   5 147.915 7.30556  -2
  -9   8   9 147.915 7.30556   1
   8   8   6 152.907 6.81916  -2
  -8   8   9 152.907 6.81916   1
  -8   8   9 32.3394 2.60282   1
   7   8   6 173.109 5.68976  -2
  -7   8   9 173.109 5.68976   1
  -6   8   9 -7.8450 4.78710   2
  -6   8   9 -0.4328 5.72206   1
   6   8   6 42.9247 11.1580  -2
  -6   8   9 42.9247 11.1580   1
   5   8   7 748.271 23.5917  -2
  -5   8   9 748.271 23.5917   1
   4   8   7 441.546 13.4716  -2
  -4   8   9 441.546 13.4716   1
   3   8   8 141.089 6.74128  -2
  -3   8   9 141.089 6.74128   1
   2   8   8 48.0114 3.34974  -2
  -2   8   9 48.0114 3.34974   1
  -1   8   9 261.899 23.6407   2
   1   8   9 559.696 31.7674  -2
  -1   8   9 559.696 31.7674   1
  -1   8   9 191.857 20.7537   1
   0   8   9 160.849 5.35758  -2
   0   8   9 160.849 5.35758   1
  -1   8   9 502.633 45.9652  -2
   1   8   9 502.633 45.9652   1
   1   8   9 301.075 22.4714   1
   1   8   9 387.917 37.6318   2
  -2   8  10 72.3642 3.70495  -2
   2   8   9 72.3642 3.70495   1
  -3   8  10 30.3538 2.97292  -2
   3   8   9 30.3538 2.97292   1
  -4   8  11 61.5891 4.47133  -2
   4   8   9 61.5891 4.47133   1
  -5   8  11 886.964 24.5776  -2
   5   8   9 886.964 24.5776   1
  -6   8  12 81.8771 14.8266  -2
   6   8   9 81.8771 14.8266   1
   6   8   9 63.3807 10.7840   1
   6   8   9 78.3029 8.87529   2
  -7   8  12 43.2191 3.54975  -2
   7   8   9 43.2191 3.54975   1
  -8   8  12 72.6181 5.98820  -2
   8   8   9 72.6181 5.98820   1
  -9   8  13 511.321 23.3372  -2
   9   8   9 511.321 23.3372   1
 -10   8  13 13.3742 4.74475  -2
  10   8   9 13.3742 4.74475   1
 -11   8  14 59.0337 6.15756  -2
  11   8   9 59.0337 6.15756   1
 -12   8  14 9.68980 3.61908  -2
  12   8   9 9.68980 3.61908   1
  12   9   4 16.9250 3.55428  -2
 -12   9   9 16.9250 3.55428   1
  11   9   4 28.8892 7.14765  -2
 -11   9   9 28.8892 7.14765   1
  10   9   5 25.0822 3.64694  -2
 -10   9   9 25.0822 3.64694   1
   9   9   5 56.9270 4.32814  -2
  -9   9   9 56.9270 4.32814   1
   8   9   6 124.263 6.76117  -2
  -8   9   9 124.263 6.76117   1
   7   9   6 87.7204 4.22064  -2
  -7   9   9 87.7204 4.22064   1
  -6   9   9 0.58357 8.50358   1
  -6   9   9 8.38039 5.07119   2
   6   9   6 6.97416 7.16958  -2
  -6   9   9 6.97416 7.16958   1
   5   9   7 119.385 5.22026  -2
  -5   9   9 119.385 5.22026   1
   4   9   7 110.577 4.75612  -2
  -4   9   9 110.577 4.75612   1
   3   9   8 56.8161 3.97019  -2
  -3   9   9 56.8161 3.97019   1
   2   9   8 195.538 8.04426  -2
  -2   9   9 195.538 8.04426   1
   1   9   9 15.6440 4.94077  -2
  -1   9   9 15.6440 4.94077   1
  -1   9   9 0.90221 8.87589   2
   0   9   9 25.6762 2.04158  -2
   0   9   9 25.6762 2.04158   1
  -1   9   9 10.4162 5.22982  -2
   1   9   9 10.4162 5.22982   1
   1   9   9 10.6471 10.1946   1
  -2   9  10 60.8602 4.01395  -2
   2   9   9 60.8602 4.01395   1
  -3   9  10 24.9020 3.19264  -2
   3   9   9 24.9020 3.19264   1
  -4   9  11 40.5146 4.34864  -2
   4   9   9 40.5146 4.34864   1
  -5   9  11 69.1630 4.48558  -2
   5   9   9 69.1630 4.48558   1
  -6   9  11 6.27592 7.87223  -2
   6   9   9 6.27592 7.87223   1
   6   9   9 9.78346 6.68877   1
  -6   9  12 41.2501 33.3325  -2
   6   9   9 41.2501 33.3325   1
  -7   9  12 0.95026 2.60524  -2
   7   9   9 0.95026 2.60524   1
  -8   9  12 50.7940 5.03044  -2
   8   9   9 50.7940 5.03044   1
  -9   9  13 9.64172 4.91101  -2
   9   9   9 9.64172 4.91101   1
 -10   9  13 17.2816 4.21545  -2
  10   9   9 17.2816 4.21545   1
 -11   9  14 11.9738 6.28487  -2
  11   9   9 11.9738 6.28487   1
 -12   9  14 -0.1217 5.57484  -2
  12   9   9 -0.1217 5.57484   1
  12  10   4 5.68446 3.46559  -2
 -12  10   9 5.68446 3.46559   1
  11  10   4 40.0613 8.69679  -2
 -11  10   9 40.0613 8.69679   1
  10  10   5 15.3927 3.68997  -2
 -10  10   9 15.3927 3.68997   1
   9  10   5 185.145 9.23461  -2
  -9  10   9 185.145 9.23461   1
   8  10   6 80.4179 9.18745  -2
  -8  10   9 80.4179 9.18745   1
   7  10   6 119.324 5.25314  -2
  -7  10   9 119.324 5.25314   1
   6  10   6 72.8115 10.8189  -2
  -6  10   9 72.8115 10.8189   1
  -6  10   9 90.6257 14.2772   2
   6  10   7 131.896 17.9181  -2
  -6  10   9 131.896 17.9181   1
   5  10   7 246.956 8.42793  -2
  -5  10   9 246.956 8.42793   1
   4  10   7 63.9862 4.17708  -2
  -4  10   9 63.9862 4.17708   1
   3  10   8 84.2839 4.32021  -2
  -3  10   9 84.2839 4.32021   1
   2  10   8 159.608 6.21082  -2
  -2  10   9 159.608 6.21082   1
   1  10   9 387.035 16.8869  -2
  -1  10   9 387.035 16.8869   1
  -1  10   9 258.288 49.8750   2
  -1  10   9 343.298 63.5270   1
   0  10   9 35.9240 2.23304  -2
   0  10   9 35.9240 2.23304   1
  -1  10   9 435.870 17.4043  -2
   1  10   9 435.870 17.4043   1
   1  10   9 91.5933 49.6649   2
  -2  10  10 290.342 9.65217  -2
   2  10   9 290.342 9.65217   1
  -3  10  10 199.891 7.53321  -2
   3  10   9 199.891 7.53321   1
  -4  10  11 57.3836 5.19238  -2
   4  10   9 57.3836 5.19238   1
  -5  10  11 159.558 6.92080  -2
   5  10   9 159.558 6.92080   1
   6  10   9 11.3355 7.66037   1
  -6  10  11 21.1810 7.11495  -2
   6  10   9 21.1810 7.11495   1
  -6  10  12 24.2774 55.0476  -2
   6  10   9 24.2774 55.0476   1
  -7  10  12 -1.5054 3.84762  -2
   7  10   9 -1.5054 3.84762   1
  -8  10  12 19.6327 5.88843  -2
   8  10   9 19.6327 5.88843   1
  -9  10  13 13.9617 5.47368  -2
   9  10   9 13.9617 5.47368   1
 -10  10  13 3.59446 3.75410  -2
  10  10   9 3.59446 3.75410   1
 -11  10  14 9.38614 9.08024  -2
  11  10   9 9.38614 9.08024   1
 -11  10  13 19.2650 13.8472  -2
  11  10   9 19.2650 13.8472   1
  12  11   4 20.0492 5.25848  -2
 -12  11   9 20.0492 5.25848   1
  11  11   4 52.1211 9.72527  -2
 -11  11   9 52.1211 9.72527   1
  10  11   5 112.980 6.70140  -2
 -10  11   9 112.980 6.70140   1
   9  11   5 61.7525 5.45546  -2
  -9  11   9 61.7525 5.45546   1
   8  11   6 224.165 18.0000  -2
  -8  11   9 224.165 18.0000   1
   7  11   6 88.2746 4.57297  -2
  -7  11   9 88.2746 4.57297   1
  -6  11   9 205.773 23.1090   2
   5  11   7 7.99851 1.89250  -2
  -5  11   9 7.99851 1.89250   1
   4  11   7 184.961 9.77679  -2
  -4  11   9 184.961 9.77679   1
   3  11   8 216.444 8.09269  -2
  -3  11   9 216.444 8.09269   1
   2  11   8 222.850 7.65025  -2
  -2  11   9 222.850 7.65025   1
   1  11   9 1.87685 3.65849  -2
  -1  11   9 1.87685 3.65849   1
  -1  11   9 10.9419 17.1575   2
  -1  11   9 -10.878 14.6502   1
   0  11   9 15.2417 1.95839  -2
   0  11   9 15.2417 1.95839   1
  -1  11   9 1.52766 6.31842  -2
   1  11   9 1.52766 6.31842   1
   1  11   9 -8.8736 15.7333   1
   1  11   9 2.89552 15.4892   2
  -2  11  10 163.040 6.69512  -2
   2  11   9 163.040 6.69512   1
  -3  11  10 97.0011 6.13309  -2
   3  11   9 97.0011 6.13309   1
  -4  11  11 75.4463 6.16362  -2
   4  11   9 75.4463 6.16362   1
  -5  11  11 27.4213 3.17388  -2
   5  11   9 27.4213 3.17388   1
  -6  11  12 39.1752 61.2507  -2
   6  11   9 39.1752 61.2507   1
  -7  11  12 183.987 10.8581  -2
   7  11   9 183.987 10.8581   1
  -8  11  12 236.102 12.1124  -2
   8  11   9 236.102 12.1124   1
  -9  11  13 16.2821 3.86245  -2
   9  11   9 16.2821 3.86245   1
 -10  11  13 31.2812 4.87932  -2
  10  11   9 31.2812 4.87932   1
  11  11   9 8.11639 4.26650   1
 -11  11  13 -2.2575 9.86292  -2
  11  11   9 -2.2575 9.86292   1
  11  12   4 9.51484 10.8678  -2
 -11  12   9 9.51484 10.8678   1
  10  12   5 0.83986 4.67598  -2
 -10  12   9 0.83986 4.67598   1
   9  12   5 18.0347 4.26226  -2
  -9  12   9 18.0347 4.26226   1
   8  12   6 16.8537 7.31511  -2
  -8  12   9 16.8537 7.31511   1
   7  12   6 57.2458 4.11138  -2
  -7  12   9 57.2458 4.11138   1
   5  12   7 18.5304 4.10742  -2
  -5  12   9 18.5304 4.10742   1
   4  12   7 11.6364 3.47207  -2
  -4  12   9 11.6364 3.47207   1
   3  12   8 17.5719 3.26974  -2
  -3  12   9 17.5719 3.26974   1
   2  12   8 57.1294 3.74933  -2
  -2  12   9 57.1294 3.74933   1
   1  12   9 61.2059 7.97723  -2
  -1  12   9 61.2059 7.97723   1
   0  12   9 51.7325 3.08951  -2
   0  12   9 51.7325 3.08951   1
  -1  12   9 83.4955 7.33018  -2
   1  12   9 83.4955 7.33018   1
   1  12   9 17.1596 11.1047   2
  -2  12  10 64.3703 5.35402  -2
   2  12   9 64.3703 5.35402   1
  -3  12  10 35.2508 4.52984  -2
   3  12   9 35.2508 4.52984   1
  -4  12  11 19.0748 5.87138  -2
   4  12   9 19.0748 5.87138   1
  -5  12  11 22.2804 3.78796  -2
   5  12   9 22.2804 3.78796   1
  -6  12  12 25.6599 16.8403  -2
   6  12   9 25.6599 16.8403   1
  -7  12  12 8.40994 3.08478  -2
   7  12   9 8.40994 3.08478   1
  -8  12  12 23.0746 6.02980  -2
   8  12   9 23.0746 6.02980   1
  -9  12  13 4.66782 3.94216  -2
   9  12   9 4.66782 3.94216   1
 -10  12  13 14.1342 6.24044  -2
  10  12   9 14.1342 6.24044   1
  10  13   5 15.4148 11.0686  -2
 -10  13   9 15.4148 11.0686   1
   9  13   5 101.133 7.35043  -2
  -9  13   9 101.133 7.35043   1
   8  13   6 45.0230 10.5290  -2
  -8  13   9 45.0230 10.5290   1
   7  13   6 57.8458 3.76329  -2
  -7  13   9 57.8458 3.76329   1
   5  13   7 100.370 5.05340  -2
  -5  13   9 100.370 5.05340   1
   4  13   7 23.3941 4.84038  -2
  -4  13   9 23.3941 4.84038   1
   3  13   8 6.92155 5.50911  -2
  -3  13   9 6.92155 5.50911   1
   2  13   8 11.4477 3.87167  -2
  -2  13   9 11.4477 3.87167   1
   1  13   9 97.6524 11.6223  -2
  -1  13   9 97.6524 11.6223   1
  -1  13   9 61.6539 26.9370   1
   0  13   9 12.6096 2.95335  -2
   0  13   9 12.6096 2.95335   1
  -1  13   9 88.5694 17.6540  -2
   1  13   9 88.5694 17.6540   1
  -2  13  10 65.0028 5.66719  -2
   2  13   9 65.0028 5.66719   1
  -3  13  10 64.5594 6.15305  -2
   3  13   9 64.5594 6.15305   1
  -4  13  11 -0.3287 4.42725  -2
   4  13   9 -0.3287 4.42725   1
  -5  13  11 54.1525 4.71304  -2
   5  13   9 54.1525 4.71304   1
  -6  13  12 46.5998 18.0761  -2
   6  13   9 46.5998 18.0761   1
  -7  13  12 27.3615 3.63928  -2
   7  13   9 27.3615 3.63928   1
  -8  13  12 4.58069 5.84515  -2
   8  13   9 4.58069 5.84515   1
  -9  13  13 21.1917 6.15075  -2
   9  13   9 21.1917 6.15075   1
   9  14   5 47.3959 8.80500  -2
  -9  14   9 47.3959 8.80500   1
   8  14   6 26.2028 7.61326  -2
  -8  14   9 26.2028 7.61326   1
   7  14   6 41.0501 3.36603  -2
  -7  14   9 41.0501 3.36603   1
   5  14   7 194.619 7.18966  -2
  -5  14   9 194.619 7.18966   1
   4  14   7 21.1473 4.86778  -2
  -4  14   9 21.1473 4.86778   1
   3  14   8 98.1591 7.20946  -2
  -3  14   9 98.1591 7.20946   1
   2  14   8 163.224 8.11467  -2
  -2  14   9 163.224 8.11467   1
   1  14   9 405.635 34.9479  -2
  -1  14   9 405.635 34.9479   1
   0  14   9 17.6128 3.48271  -2
   0  14   9 17.6128 3.48271   1
  -1  14   9 427.537 41.0550  -2
   1  14   9 427.537 41.0550   1
  -2  14  10 88.5037 7.33829  -2
   2  14   9 88.5037 7.33829   1
  -3  14  10 31.3292 5.72940  -2
   3  14   9 31.3292 5.72940   1
  -4  14  11 4.80338 6.81994  -2
   4  14   9 4.80338 6.81994   1
  -5  14  11 306.836 11.1748  -2
   5  14   9 306.836 11.1748   1
  -6  14  11 -3.9381 15.5840  -2
   6  14   9 -3.9381 15.5840   1
  -7  14  12 0.31638 3.01566  -2
   7  14   9 0.31638 3.01566   1
  -8  14  12 80.7525 10.7954  -2
   8  14   9 80.7525 10.7954   1
  -8  15   9 4.05254 7.87612   2
  -8  15   9 2.33286 8.53258   1
   7  15   6 3.48294 2.79735  -2
  -7  15   9 3.48294 2.79735   1
   5  15   7 20.3086 3.32407  -2
  -5  15   9 20.3086 3.32407   1
   4  15   7 8.21914 5.81611  -2
  -4  15   9 8.21914 5.81611   1
   3  15   8 4.80431 4.46528  -2
  -3  15   9 4.80431 4.46528   1
   2  15   8 2.35117 4.06030  -2
  -2  15   9 2.35117 4.06030   1
   1  15   9 8.28722 10.6731  -2
  -1  15   9 8.28722 10.6731   1
   0  15   9 -0.8272 2.26979  -2
   0  15   9 -0.8272 2.26979   1
  -1  15   9 16.9110 9.97928  -2
   1  15   9 16.9110 9.97928   1
  -2  15  10 9.49354 4.17229  -2
   2  15   9 9.49354 4.17229   1
  -3  15  10 9.71242 4.58268  -2
   3  15   9 9.71242 4.58268   1
  -4  15  11 13.8403 4.36728  -2
   4  15   9 13.8403 4.36728   1
  -5  15  11 4.14699 3.79325  -2
   5  15   9 4.14699 3.79325   1
   5  16   7 35.7366 5.35200  -2
  -5  16   9 35.7366 5.35200   1
   4  16   7 10.5694 6.45937  -2
  -4  16   9 10.5694 6.45937   1
   3  16   8 33.0147 6.72552  -2
  -3  16   9 33.0147 6.72552   1
   2  16   8 72.7463 5.56131  -2
  -2  16   9 72.7463 5.56131   1
   1  16   9 14.6175 10.4192  -2
  -1  16   9 14.6175 10.4192   1
   0  16   9 1.34064 2.32817  -2
   0  16   9 1.34064 2.32817   1
  -1  16   9 18.9397 14.9065  -2
   1  16   9 18.9397 14.9065   1
  -2  16  10 9.69123 3.80301  -2
   2  16   9 9.69123 3.80301   1
  -3  16  10 4.27804 5.83527  -2
   3  16   9 4.27804 5.83527   1
  -4  16  11 15.0172 9.60471  -2
   4  16   9 15.0172 9.60471   1
   2  17   8 39.0772 7.55293  -2
  -2  17   9 39.0772 7.55293   1
   1  17   9 -11.273 9.41382  -2
  -1  17   9 -11.273 9.41382   1
   0  17   9 66.7358 5.98285  -2
   0  17   9 66.7358 5.98285   1
  -1  17   9 21.4650 14.6282  -2
   1  17   9 21.4650 14.6282   1
  14   0   4 37.7534 7.91961  -2
 -14   0  10 37.7534 7.91961   1
  12   0   5 39.3913 4.53430  -2
 -12   0  10 39.3913 4.53430   1
  11   0   5 46.2388 6.05950  -2
 -11   0  10 46.2388 6.05950   1
  10   0   6 191.153 10.5731  -2
 -10   0  10 191.153 10.5731   1
   9   0   6 -12.644 4.62679  -2
  -9   0  10 -12.644 4.62679   1
   8   0   7 200.145 12.1421  -2
  -8   0  10 200.145 12.1421   1
   7   0   7 173.448 10.0217  -2
  -7   0  10 173.448 10.0217   1
  -6   0  10 136.182 10.5145   1
   6   0   7 137.438 11.5665  -2
  -6   0  10 137.438 11.5665   1
  -6   0  10 245.561 50.9254   2
   5   0   8 -0.4416 1.61436  -2
  -5   0  10 -0.4416 1.61436   1
   4   0   8 593.767 18.4832  -2
  -4   0  10 593.767 18.4832   1
   3   0   9 390.561 13.3345  -2
  -3   0  10 390.561 13.3345   1
   2   0   9 207.006 7.42445  -2
  -2   0  10 207.006 7.42445   1
  -1   0  10 9.20074 11.9702   1
   1   0  10 12.4527 3.63992  -2
  -1   0  10 12.4527 3.63992   1
  -1   0  10 17.2566 18.4633   2
   0   0  10 2525.53 72.3987  -2
   0   0  10 2525.53 72.3987   1
   1   0  10 1.61065 15.2825   1
  -1   0  10 5.66064 3.90037  -2
   1   0  10 5.66064 3.90037   1
   1   0  10 11.8321 11.5609   2
  -2   0  11 420.046 15.4096  -2
   2   0  10 420.046 15.4096   1
  -3   0  11 16.5314 3.19396  -2
   3   0  10 16.5314 3.19396   1
  -4   0  12 565.844 21.3648  -2
   4   0  10 565.844 21.3648   1
  -5   0  12 5.39875 2.59857  -2
   5   0  10 5.39875 2.59857   1
  -6   0  13 160.338 11.5411  -2
   6   0  10 160.338 11.5411   1
   6   0  10 141.579 13.6970   2
  -7   0  13 262.572 13.3959  -2
   7   0  10 262.572 13.3959   1
  -8   0  13 407.184 16.4750  -2
   8   0  10 407.184 16.4750   1
  -9   0  14 11.1884 4.22741  -2
   9   0  10 11.1884 4.22741   1
 -10   0  14 6.55410 5.00274  -2
  10   0  10 6.55410 5.00274   1
 -11   0  15 85.5361 14.5554  -2
  11   0  10 85.5361 14.5554   1
 -12   0  15 6.62394 4.60334  -2
  12   0  10 6.62394 4.60334   1
 -13   0  15 22.1899 11.4443  -2
  13   0  10 22.1899 11.4443   1
 -14   0  16 49.4438 8.14690  -2
  14   0  10 49.4438 8.14690   1
  15   1   4 56.9716 16.6591  -2
 -15   1  10 56.9716 16.6591   1
  14   1   4 7.74850 4.42748  -2
 -14   1  10 7.74850 4.42748   1
  12   1   5 86.1160 4.90053  -2
 -12   1  10 86.1160 4.90053   1
  11   1   5 334.601 13.0134  -2
 -11   1  10 334.601 13.0134   1
  10   1   6 88.6199 4.75347  -2
 -10   1  10 88.6199 4.75347   1
   9   1   6 35.9550 2.00329  -2
  -9   1  10 35.9550 2.00329   1
   8   1   7 11.5164 1.97499  -2
  -8   1  10 11.5164 1.97499   1
   7   1   7 327.181 9.76078  -2
  -7   1  10 327.181 9.76078   1
   6   1   7 258.448 11.9309  -2
  -6   1  10 258.448 11.9309   1
  -6   1  10 63.4940 3.74202   1
  -6   1  10 37.1352 17.3974   2
   5   1   8 117.885 3.91164  -2
  -5   1  10 117.885 3.91164   1
   4   1   8 46.9461 2.64769  -2
  -4   1  10 46.9461 2.64769   1
   3   1   9 117.434 3.52266  -2
  -3   1  10 117.434 3.52266   1
   2   1   9 340.156 8.03631  -2
  -2   1  10 340.156 8.03631   1
  -1   1  10 49.8922 15.8857   1
  -1   1  10 52.5714 16.6848   2
   1   1  10 539.656 17.0433  -2
  -1   1  10 539.656 17.0433   1
   0   1  10 173.072 4.39498  -2
   0   1  10 173.072 4.39498   1
   1   1  10 514.067 57.9279   2
  -1   1  10 455.619 11.6225  -2
   1   1  10 455.619 11.6225   1
   1   1  10 489.102 59.2000   1
  -2   1  11 192.407 5.61357  -2
   2   1  10 192.407 5.61357   1
  -3   1  11 117.541 4.30694  -2
   3   1  10 117.541 4.30694   1
  -4   1  12 118.772 4.41730  -2
   4   1  10 118.772 4.41730   1
  -5   1  12 572.681 14.7930  -2
   5   1  10 572.681 14.7930   1
  -6   1  13 190.967 16.1420  -2
   6   1  10 190.967 16.1420   1
  -6   1  12 22.7848 11.7964  -2
   6   1  10 22.7848 11.7964   1
   6   1  10 4.79132 2.47609   2
  -7   1  13 246.896 7.51485  -2
   7   1  10 246.896 7.51485   1
  -8   1  13 252.980 9.02934  -2
   8   1  10 252.980 9.02934   1
  -9   1  14 193.785 7.62391  -2
   9   1  10 193.785 7.62391   1
 -10   1  14 33.3765 2.79260  -2
  10   1  10 33.3765 2.79260   1
 -11   1  15 167.402 12.6822  -2
  11   1  10 167.402 12.6822   1
 -12   1  15 77.7007 5.14296  -2
  12   1  10 77.7007 5.14296   1
 -13   1  15 14.1131 8.92796  -2
  13   1  10 14.1131 8.92796   1
 -14   1  16 7.46463 4.34336  -2
  14   1  10 7.46463 4.34336   1
  15   2   4 33.8510 14.7189  -2
 -15   2  10 33.8510 14.7189   1
  14   2   4 116.830 7.93051  -2
 -14   2  10 116.830 7.93051   1
  12   2   5 31.9547 4.88368  -2
 -12   2  10 31.9547 4.88368   1
  11   2   5 20.8139 3.72800  -2
 -11   2  10 20.8139 3.72800   1
  10   2   6 275.472 8.84429  -2
 -10   2  10 275.472 8.84429   1
   9   2   6 197.660 6.97997  -2
  -9   2  10 197.660 6.97997   1
   8   2   7 172.724 6.57972  -2
  -8   2  10 172.724 6.57972   1
  -8   2  10 145.033 39.5258   2
   7   2   7 408.856 12.3066  -2
  -7   2  10 408.856 12.3066   1
   6   2   7 300.398 15.7713  -2
  -6   2  10 300.398 15.7713   1
  -6   2  10 211.516 9.67189   1
   5   2   8 343.036 8.90395  -2
  -5   2  10 343.036 8.90395   1
   4   2   8 848.902 19.2914  -2
  -4   2  10 848.902 19.2914   1
   3   2   9 315.418 8.05372  -2
  -3   2  10 315.418 8.05372   1
   2   2   9 49.4325 2.85110  -2
  -2   2  10 49.4325 2.85110   1
  -1   2  10 2.29036 2.66054   1
   1   2  10 285.995 10.6149  -2
  -1   2  10 285.995 10.6149   1
  -1   2  10 8.74734 10.7541   2
   0   2  10 999.506 22.6981  -2
   0   2  10 999.506 22.6981   1
  -1   2  10 219.840 6.68236  -2
   1   2  10 219.840 6.68236   1
   1   2  10 260.982 36.0745   1
   1   2  10 308.042 40.4423   2
  -2   2  11 53.3828 2.59154  -2
   2   2  10 53.3828 2.59154   1
  -3   2  11 118.445 4.61683  -2
   3   2  10 118.445 4.61683   1
  -4   2  12 476.492 12.2545  -2
   4   2  10 476.492 12.2545   1
  -5   2  12 11.1306 2.20207  -2
   5   2  10 11.1306 2.20207   1
  -6   2  13 194.579 9.08141  -2
   6   2  10 194.579 9.08141   1
   6   2  10 182.888 11.9479   2
  -6   2  12 198.111 21.6859  -2
   6   2  10 198.111 21.6859   1
  -7   2  13 30.2277 2.75499  -2
   7   2  10 30.2277 2.75499   1
  -8   2  13 101.119 5.80366  -2
   8   2  10 101.119 5.80366   1
  -9   2  14 262.569 9.74913  -2
   9   2  10 262.569 9.74913   1
 -10   2  14 78.4337 5.22976  -2
  10   2  10 78.4337 5.22976   1
 -11   2  15 84.1476 9.68373  -2
  11   2  10 84.1476 9.68373   1
 -12   2  15 15.9137 3.92981  -2
  12   2  10 15.9137 3.92981   1
  13   2  10 6.11970 7.93870   1
 -13   2  15 2.06519 13.7040  -2
  13   2  10 2.06519 13.7040   1
 -14   2  16 22.1088 6.04801  -2
  14   2  10 22.1088 6.04801   1
  15   3   4 -7.5380 12.8722  -2
 -15   3  10 -7.5380 12.8722   1
  14   3   4 7.81097 4.47672  -2
 -14   3  10 7.81097 4.47672   1
  12   3   5 32.0065 5.78308  -2
 -12   3  10 32.0065 5.78308   1
  11   3   5 -1.3125 5.26204  -2
 -11   3  10 -1.3125 5.26204   1
  10   3   6 46.4420 3.90423  -2
 -10   3  10 46.4420 3.90423   1
   9   3   6 90.8269 5.16558  -2
  -9   3  10 90.8269 5.16558   1
   8   3   7 82.8213 4.43443  -2
  -8   3  10 82.8213 4.43443   1
   7   3   7 71.2552 3.39171  -2
  -7   3  10 71.2552 3.39171   1
   6   3   7 108.323 13.1436  -2
  -6   3  10 108.323 13.1436   1
  -6   3  10 57.1618 5.41600   2
  -6   3  10 48.2710 3.38813   1
   5   3   8 1091.81 28.2684  -2
  -5   3  10 1091.81 28.2684   1
   4   3   8 268.639 6.57901  -2
  -4   3  10 268.639 6.57901   1
   3   3   9 427.796 10.9058  -2
  -3   3  10 427.796 10.9058   1
  -3   3  10 122.160 9.78579   1
   2   3   9 38.8293 2.05733  -2
  -2   3  10 38.8293 2.05733   1
  -1   3  10 116.375 9.55826   2
   1   3  10 1107.42 31.7604  -2
  -1   3  10 1107.42 31.7604   1
  -1   3  10 61.6544 25.2213   1
   0   3  10 55.6290 2.39921  -2
   0   3  10 55.6290 2.39921   1
  -1   3  10 927.923 24.1005  -2
   1   3  10 927.923 24.1005   1
   1   3  10 1067.03 146.106   2
   1   3  10 959.973 58.9802   1
  -2   3  11 331.023 8.52039  -2
   2   3  10 331.023 8.52039   1
  -3   3  11 282.556 8.64157  -2
   3   3  10 282.556 8.64157   1
  -4   3  12 182.736 5.79519  -2
   4   3  10 182.736 5.79519   1
  -5   3  12 838.473 24.3095  -2
   5   3  10 838.473 24.3095   1
  -6   3  13 67.6921 6.94718  -2
   6   3  10 67.6921 6.94718   1
   6   3  10 30.5160 4.78972   2
  -7   3  13 125.079 4.77342  -2
   7   3  10 125.079 4.77342   1
  -8   3  13 113.123 6.79017  -2
   8   3  10 113.123 6.79017   1
  -9   3  14 268.730 9.08402  -2
   9   3  10 268.730 9.08402   1
 -10   3  14 11.3665 3.21243  -2
  10   3  10 11.3665 3.21243   1
 -11   3  15 25.5335 9.72646  -2
  11   3  10 25.5335 9.72646   1
 -12   3  15 58.6296 4.61232  -2
  12   3  10 58.6296 4.61232   1
 -13   3  16 9.91188 15.0335  -2
  13   3  10 9.91188 15.0335   1
 -13   3  15 31.0661 16.2531  -2
  13   3  10 31.0661 16.2531   1
  14   3  10 3.72788 3.73665   2
  14   3  10 3.05157 4.15400   1
  15   4   4 27.3175 13.0586  -2
 -15   4  10 27.3175 13.0586   1
  14   4   4 216.330 11.2692  -2
 -14   4  10 216.330 11.2692   1
 -13   4  10 13.6118 8.29056   2
  12   4   5 78.3617 5.83278  -2
 -12   4  10 78.3617 5.83278   1
  11   4   5 17.8726 7.93726  -2
 -11   4  10 17.8726 7.93726   1
  10   4   6 116.502 6.44267  -2
 -10   4  10 116.502 6.44267   1
   9   4   6 393.697 13.8853  -2
  -9   4  10 393.697 13.8853   1
   8   4   7 253.846 9.94591  -2
  -8   4  10 253.846 9.94591   1
  -8   4  10 137.947 11.5151   2
  -8   4  10 89.1742 33.0958   1
   7   4   7 48.7990 3.11184  -2
  -7   4  10 48.7990 3.11184   1
  -6   4  10 25.3598 2.63170   1
   6   4   7 287.649 14.6149  -2
  -6   4  10 287.649 14.6149   1
  -6   4  10 30.1143 24.9529   2
   5   4   8 289.406 8.59005  -2
  -5   4  10 289.406 8.59005   1
   4   4   8 301.268 7.37123  -2
  -4   4  10 301.268 7.37123   1
   3   4   9 399.702 10.8457  -2
  -3   4  10 399.702 10.8457   1
   2   4   9 209.454 5.96896  -2
  -2   4  10 209.454 5.96896   1
  -1   4  10 -1.0074 2.90369   1
   1   4  10 51.1366 2.63194  -2
  -1   4  10 51.1366 2.63194   1
  -1   4  10 -3.2470 1.54095   2
   0   4  10 105.651 3.36621  -2
   0   4  10 105.651 3.36621   1
  -1   4  10 45.4982 2.71747  -2
   1   4  10 45.4982 2.71747   1
   1   4  10 56.0215 6.26997   2
   1   4  10 48.7030 5.34771   1
  -2   4  11 356.911 9.13764  -2
   2   4  10 356.911 9.13764   1
  -3   4  11 258.356 7.83953  -2
   3   4  10 258.356 7.83953   1
  -4   4  12 314.268 9.76996  -2
   4   4  10 314.268 9.76996   1
   4   4  10 328.187 18.2068   2
  -5   4  12 171.614 6.57649  -2
   5   4  10 171.614 6.57649   1
  -6   4  13 48.8023 5.44714  -2
   6   4  10 48.8023 5.44714   1
  -6   4  12 270.922 26.6738  -2
   6   4  10 270.922 26.6738   1
   6   4  10 27.3030 4.34699   2
  -7   4  13 350.314 10.5023  -2
   7   4  10 350.314 10.5023   1
  -8   4  13 398.920 19.1388  -2
   8   4  10 398.920 19.1388   1
  -9   4  14 133.414 6.00040  -2
   9   4  10 133.414 6.00040   1
 -10   4  14 76.8090 5.57901  -2
  10   4  10 76.8090 5.57901   1
 -11   4  15 144.610 10.1843  -2
  11   4  10 144.610 10.1843   1
 -12   4  15 56.1513 5.13050  -2
  12   4  10 56.1513 5.13050   1
 -13   4  15 2.70463 8.93047  -2
  13   4  10 2.70463 8.93047   1
  13   4  10 -6.4349 6.24960   1
  14   5   4 -2.7769 4.38659  -2
 -14   5  10 -2.7769 4.38659   1
 -13   5  10 20.4149 9.49135   2
  12   5   5 80.2421 5.70449  -2
 -12   5  10 80.2421 5.70449   1
  11   5   5 66.8966 5.86766  -2
 -11   5  10 66.8966 5.86766   1
  10   5   6 14.1259 2.94811  -2
 -10   5  10 14.1259 2.94811   1
   9   5   6 22.6335 3.73847  -2
  -9   5  10 22.6335 3.73847   1
   8   5   7 295.663 12.4274  -2
  -8   5  10 295.663 12.4274   1
   7   5   7 580.057 18.5213  -2
  -7   5  10 580.057 18.5213   1
  -6   5  10 88.8901 5.36574   1
   6   5   7 709.307 48.0158  -2
  -6   5  10 709.307 48.0158   1
  -6   5  10 132.532 36.4084   2
   5   5   8 334.522 10.8574  -2
  -5   5  10 334.522 10.8574   1
   4   5   8 205.727 5.83159  -2
  -4   5  10 205.727 5.83159   1
   3   5   9 1592.30 40.1021  -2
  -3   5  10 1592.30 40.1021   1
  -3   5  10 1603.62 87.6997   1
   2   5   9 2075.12 55.5100  -2
  -2   5  10 2075.12 55.5100   1
   1   5  10 1368.83 42.7253  -2
  -1   5  10 1368.83 42.7253   1
  -1   5  10 861.676 43.4698   1
  -1   5  10 1034.92 69.2396   2
   0   5  10 196.766 5.41082  -2
   0   5  10 196.766 5.41082   1
   1   5  10 455.986 27.1645   2
  -1   5  10 1511.74 43.8743  -2
   1   5  10 1511.74 43.8743   1
   1   5  10 354.606 26.2145   1
  -2   5  11 1653.79 40.2247  -2
   2   5  10 1653.79 40.2247   1
  -3   5  11 563.021 14.6581  -2
   3   5  10 563.021 14.6581   1
  -4   5  12 50.3591 5.27439  -2
   4   5  10 50.3591 5.27439   1
  -5   5  12 179.020 7.54196  -2
   5   5  10 179.020 7.54196   1
  -6   5  13 285.311 22.2446  -2
   6   5  10 285.311 22.2446   1
   6   5  10 -0.3639 2.35424   2
   6   5  10 4.75342 6.31202   1
  -7   5  13 162.144 6.08178  -2
   7   5  10 162.144 6.08178   1
  -8   5  13 92.4777 6.57429  -2
   8   5  10 92.4777 6.57429   1
  -9   5  14 6.53551 2.79086  -2
   9   5  10 6.53551 2.79086   1
 -10   5  14 7.66178 3.82187  -2
  10   5  10 7.66178 3.82187   1
 -11   5  15 60.0530 11.1264  -2
  11   5  10 60.0530 11.1264   1
 -12   5  15 63.7360 5.19724  -2
  12   5  10 63.7360 5.19724   1
 -13   5  15 67.5225 10.5117  -2
  13   5  10 67.5225 10.5117   1
  14   6   4 8.28477 5.19685  -2
 -14   6  10 8.28477 5.19685   1
  12   6   5 127.467 7.03807  -2
 -12   6  10 127.467 7.03807   1
  11   6   5 13.1680 6.11162  -2
 -11   6  10 13.1680 6.11162   1
  10   6   6 9.42034 2.99418  -2
 -10   6  10 9.42034 2.99418   1
   9   6   6 71.6108 4.75828  -2
  -9   6  10 71.6108 4.75828   1
   8   6   7 121.612 6.40306  -2
  -8   6  10 121.612 6.40306   1
   7   6   7 230.793 7.50506  -2
  -7   6  10 230.793 7.50506   1
   6   6   8 205.939 17.3703  -2
  -6   6  10 205.939 17.3703   1
  -6   6  10 122.222 6.31612   1
   6   6   7 145.319 15.4227  -2
  -6   6  10 145.319 15.4227   1
  -6   6  10 158.941 15.8646   2
   5   6   8 219.275 6.68285  -2
  -5   6  10 219.275 6.68285   1
   4   6   8 145.550 4.34416  -2
  -4   6  10 145.550 4.34416   1
   3   6   9 674.251 17.1583  -2
  -3   6  10 674.251 17.1583   1
   2   6   9 653.324 16.8017  -2
  -2   6  10 653.324 16.8017   1
   1   6  10 18.9000 3.42262  -2
  -1   6  10 18.9000 3.42262   1
  -1   6  10 2.49287 1.84767   2
  -1   6  10 2.59552 0.76076   1
   0   6  10 6.81542 1.01454  -2
   0   6  10 6.81542 1.01454   1
   1   6  10 13.5759 2.63327   1
   1   6  10 20.8998 4.83552   2
  -1   6  10 24.4697 1.50269  -2
   1   6  10 24.4697 1.50269   1
  -2   6  11 212.604 7.72548  -2
   2   6  10 212.604 7.72548   1
  -3   6  11 246.903 12.3560  -2
   3   6  10 246.903 12.3560   1
  -4   6  12 99.2108 6.98308  -2
   4   6  10 99.2108 6.98308   1
   4   6  10 5.60041 1.20799   2
  -5   6  12 58.1435 3.66271  -2
   5   6  10 58.1435 3.66271   1
   6   6  10 -1.5464 2.10764   2
  -6   6  13 37.8418 13.2568  -2
   6   6  10 37.8418 13.2568   1
   6   6  10 -2.8383 6.12881   1
  -7   6  13 62.0872 4.05919  -2
   7   6  10 62.0872 4.05919   1
  -8   6  13 29.6613 3.78558  -2
   8   6  10 29.6613 3.78558   1
  -9   6  14 -0.7667 3.01126  -2
   9   6  10 -0.7667 3.01126   1
 -10   6  14 17.1148 5.38981  -2
  10   6  10 17.1148 5.38981   1
 -11   6  15 5.18201 5.15860  -2
  11   6  10 5.18201 5.15860   1
 -12   6  15 25.4051 3.96557  -2
  12   6  10 25.4051 3.96557   1
 -13   6  16 65.3357 14.7230  -2
 -13   6  15 65.3357 14.7230  -2
  13   6  10 65.3357 14.7230   1
 -13   6  15 67.5140 17.8419  -2
  13   6  10 67.5140 17.8419   1
  14   7   4 36.2647 7.48250  -2
 -14   7  10 36.2647 7.48250   1
  12   7   5 31.5762 3.96249  -2
 -12   7  10 31.5762 3.96249   1
  11   7   5 178.606 10.2147  -2
 -11   7  10 178.606 10.2147   1
  10   7   6 98.0264 5.48672  -2
 -10   7  10 98.0264 5.48672   1
   9   7   6 6.22883 3.40007  -2
  -9   7  10 6.22883 3.40007   1
   8   7   7 71.7700 5.40842  -2
  -8   7  10 71.7700 5.40842   1
  -8   7  10 58.1434 5.84668   2
   7   7   7 241.586 8.15289  -2
  -7   7  10 241.586 8.15289   1
   6   7   7 100.003 7.36208  -2
  -6   7  10 100.003 7.36208   1
  -6   7  10 9.77381 6.94723   1
  -6   7  10 5.62916 5.64361   2
   5   7   8 261.011 9.20565  -2
  -5   7  10 261.011 9.20565   1
   4   7   8 91.8839 3.76031  -2
  -4   7  10 91.8839 3.76031   1
   3   7   9 206.799 7.46479  -2
  -3   7  10 206.799 7.46479   1
   2   7   9 126.950 5.06127  -2
  -2   7  10 126.950 5.06127   1
  -1   7  10 6.89422 1.90721   1
   1   7  10 289.109 10.7252  -2
  -1   7  10 289.109 10.7252   1
  -1   7  10 8.35787 2.74243   2
   0   7  10 210.972 7.12534  -2
   0   7  10 210.972 7.12534   1
  -1   7  10 252.375 14.7988  -2
   1   7  10 252.375 14.7988   1
   1   7  10 227.042 18.3304   2
   1   7  10 263.609 21.9646   1
  -2   7  11 32.4744 3.52692  -2
   2   7  10 32.4744 3.52692   1
  -3   7  11 4.19069 3.47370  -2
   3   7  10 4.19069 3.47370   1
   3   7  10 8.64570 1.44217   2
  -4   7  12 308.615 9.49168  -2
   4   7  10 308.615 9.49168   1
   4   7  10 211.838 12.0570   2
  -5   7  12 241.258 7.73445  -2
   5   7  10 241.258 7.73445   1
  -6   7  13 10.1729 13.1482  -2
   6   7  10 10.1729 13.1482   1
   6   7  10 0.08514 2.20592   2
   6   7  10 17.5040 5.74666   1
  -7   7  13 83.6979 4.51245  -2
   7   7  10 83.6979 4.51245   1
  -8   7  13 25.8095 4.11573  -2
   8   7  10 25.8095 4.11573   1
  -9   7  14 26.9512 5.34885  -2
   9   7  10 26.9512 5.34885   1
 -10   7  14 97.8142 7.00637  -2
  10   7  10 97.8142 7.00637   1
 -11   7  15 36.4170 5.40209  -2
  11   7  10 36.4170 5.40209   1
 -12   7  15 2.81147 3.66652  -2
  12   7  10 2.81147 3.66652   1
  12   8   5 56.3796 4.46029  -2
 -12   8  10 56.3796 4.46029   1
  11   8   5 23.5341 7.25904  -2
 -11   8  10 23.5341 7.25904   1
  10   8   6 328.567 12.7212  -2
 -10   8  10 328.567 12.7212   1
   9   8   6 97.1759 5.70184  -2
  -9   8  10 97.1759 5.70184   1
   8   8   7 113.363 6.46315  -2
  -8   8  10 113.363 6.46315   1
   7   8   7 29.0322 2.19633  -2
  -7   8  10 29.0322 2.19633   1
  -6   8  10 110.443 13.3031   2
   6   8   7 187.214 15.3050  -2
  -6   8  10 187.214 15.3050   1
   5   8   8 139.981 5.59768  -2
  -5   8  10 139.981 5.59768   1
   4   8   8 671.600 23.7927  -2
  -4   8  10 671.600 23.7927   1
   3   8   9 23.1629 3.02742  -2
  -3   8  10 23.1629 3.02742   1
   2   8   9 65.4829 4.61381  -2
  -2   8  10 65.4829 4.61381   1
   1   8  10 186.586 13.6461  -2
  -1   8  10 186.586 13.6461   1
  -1   8  10 23.0533 18.3050   2
   0   8  10 1292.29 36.6225  -2
   0   8  10 1292.29 36.6225   1
  -1   8  10 129.781 24.4506  -2
   1   8  10 129.781 24.4506   1
   1   8  10 156.010 13.1295   1
  -2   8  11 229.665 9.70720  -2
   2   8  10 229.665 9.70720   1
  -3   8  11 199.058 7.19642  -2
   3   8  10 199.058 7.19642   1
  -4   8  12 806.798 25.9291  -2
   4   8  10 806.798 25.9291   1
  -5   8  12 154.983 5.92842  -2
   5   8  10 154.983 5.92842   1
  -6   8  13 413.934 33.2066  -2
   6   8  10 413.934 33.2066   1
   6   8  10 250.997 25.9532   1
   6   8  10 325.243 26.6951   2
  -7   8  13 18.0275 2.79397  -2
   7   8  10 18.0275 2.79397   1
  -8   8  13 98.6257 6.62670  -2
   8   8  10 98.6257 6.62670   1
  -9   8  14 44.6712 5.44122  -2
   9   8  10 44.6712 5.44122   1
 -10   8  14 139.067 9.19577  -2
  10   8  10 139.067 9.19577   1
 -11   8  15 9.57413 4.88020  -2
  11   8  10 9.57413 4.88020   1
 -12   8  15 7.77959 5.55190  -2
  12   8  10 7.77959 5.55190   1
  12   9   5 10.1355 3.90629  -2
 -12   9  10 10.1355 3.90629   1
  10   9   6 7.35786 3.20467  -2
 -10   9  10 7.35786 3.20467   1
   9   9   6 65.0005 6.43495  -2
  -9   9  10 65.0005 6.43495   1
   8   9   7 -2.6959 4.98507  -2
  -8   9  10 -2.6959 4.98507   1
   7   9   7 114.852 5.05107  -2
  -7   9  10 114.852 5.05107   1
   6   9   7 20.8119 7.02872  -2
  -6   9  10 20.8119 7.02872   1
  -6   9  10 19.9670 13.1582   1
  -6   9  10 4.90337 5.70250   2
   6   9   8 11.1920 12.6604  -2
  -6   9  10 11.1920 12.6604   1
   5   9   8 48.6545 2.71816  -2
  -5   9  10 48.6545 2.71816   1
   4   9   8 51.3548 3.62792  -2
  -4   9  10 51.3548 3.62792   1
   3   9   9 21.2529 3.36238  -2
  -3   9  10 21.2529 3.36238   1
   2   9   9 47.4852 3.09729  -2
  -2   9  10 47.4852 3.09729   1
   1   9  10 12.2617 3.13610  -2
  -1   9  10 12.2617 3.13610   1
  -1   9  10 2.37697 16.2453   2
   0   9  10 45.4987 2.48551  -2
   0   9  10 45.4987 2.48551   1
  -1   9  10 12.1349 5.20550  -2
   1   9  10 12.1349 5.20550   1
   1   9  10 12.1060 16.9634   1
  -2   9  11 23.3185 3.77756  -2
   2   9  10 23.3185 3.77756   1
  -3   9  11 12.3198 2.18502  -2
   3   9  10 12.3198 2.18502   1
  -4   9  12 13.8662 3.89703  -2
   4   9  10 13.8662 3.89703   1
  -5   9  12 47.2762 4.27770  -2
   5   9  10 47.2762 4.27770   1
  -6   9  12 14.0241 6.16152  -2
   6   9  10 14.0241 6.16152   1
   6   9  10 19.1590 8.27137   1
  -7   9  13 5.38739 2.76430  -2
   7   9  10 5.38739 2.76430   1
  -8   9  13 35.9186 5.52925  -2
   8   9  10 35.9186 5.52925   1
  -9   9  14 60.5489 6.00831  -2
   9   9  10 60.5489 6.00831   1
 -10   9  14 42.7284 4.97664  -2
  10   9  10 42.7284 4.97664   1
 -11   9  15 3.34084 5.22295  -2
  11   9  10 3.34084 5.22295   1
 -11   9  14 29.0974 14.7294  -2
  11   9  10 29.0974 14.7294   1
  12  10   5 45.1326 6.70931  -2
 -12  10  10 45.1326 6.70931   1
  11  10   5 15.6953 6.52461  -2
 -11  10  10 15.6953 6.52461   1
  10  10   6 20.7011 4.12958  -2
 -10  10  10 20.7011 4.12958   1
   9  10   6 19.7957 4.97230  -2
  -9  10  10 19.7957 4.97230   1
   8  10   7 37.2902 14.0798  -2
  -8  10  10 37.2902 14.0798   1
   7  10   7 50.6560 3.13195  -2
  -7  10  10 50.6560 3.13195   1
   6  10   8 61.2506 14.8892  -2
  -6  10  10 61.2506 14.8892   1
  -6  10  10 62.9862 12.3815   2
   5  10   8 49.0056 3.53927  -2
  -5  10  10 49.0056 3.53927   1
   4  10   8 426.615 13.6220  -2
  -4  10  10 426.615 13.6220   1
   3  10   9 241.437 7.85515  -2
  -3  10  10 241.437 7.85515   1
   2  10   9 226.046 7.84015  -2
  -2  10  10 226.046 7.84015   1
   1  10  10 130.321 7.92449  -2
  -1  10  10 130.321 7.92449   1
  -1  10  10 39.1815 22.3765   2
   0  10  10 344.611 9.31231  -2
   0  10  10 344.611 9.31231   1
  -1  10  10 102.170 7.61399  -2
   1  10  10 102.170 7.61399   1
   1  10  10 66.2408 28.6153   1
  -2  10  11 30.4754 3.44333  -2
   2  10  10 30.4754 3.44333   1
  -3  10  11 65.8528 3.76058  -2
   3  10  10 65.8528 3.76058   1
  -4  10  12 50.3698 4.91312  -2
   4  10  10 50.3698 4.91312   1
  -5  10  12 14.5507 2.79290  -2
   5  10  10 14.5507 2.79290   1
  -6  10  13 -29.115 56.6361  -2
   6  10  10 -29.115 56.6361   1
  -6  10  12 95.4846 10.8047  -2
   6  10  10 95.4846 10.8047   1
   6  10  10 -11.309 14.2127   2
  -7  10  13 66.4452 5.56960  -2
   7  10  10 66.4452 5.56960   1
  -8  10  13 43.1951 6.10791  -2
   8  10  10 43.1951 6.10791   1
  -9  10  14 10.2656 5.37964  -2
   9  10  10 10.2656 5.37964   1
 -10  10  14 24.2436 4.27552  -2
  10  10  10 24.2436 4.27552   1
 -11  10  15 5.62541 7.31094  -2
  11  10  10 5.62541 7.31094   1
  12  11   5 50.1698 12.0785  -2
 -12  11  10 50.1698 12.0785   1
 -12  11  10 35.1596 8.09911   1
 -12  11  10 20.9815 4.89807   2
  11  11   5 76.8770 8.87165  -2
 -11  11  10 76.8770 8.87165   1
  10  11   6 23.7981 5.04585  -2
 -10  11  10 23.7981 5.04585   1
   9  11   6 110.809 7.78426  -2
  -9  11  10 110.809 7.78426   1
   8  11   7 117.226 13.2432  -2
  -8  11  10 117.226 13.2432   1
   7  11   7 152.233 6.96340  -2
  -7  11  10 152.233 6.96340   1
   5  11   8 32.5866 2.88529  -2
  -5  11  10 32.5866 2.88529   1
   4  11   8 58.8502 5.72526  -2
  -4  11  10 58.8502 5.72526   1
   3  11   9 92.6501 5.06705  -2
  -3  11  10 92.6501 5.06705   1
   2  11   9 208.375 7.01277  -2
  -2  11  10 208.375 7.01277   1
   1  11  10 100.004 7.88567  -2
  -1  11  10 100.004 7.88567   1
  -1  11  10 73.2528 17.7789   2
   0  11  10 8.90198 1.47147  -2
   0  11  10 8.90198 1.47147   1
  -1  11  10 119.874 8.79184  -2
   1  11  10 119.874 8.79184   1
   1  11  10 20.1645 14.2483   1
  -2  11  11 471.928 16.0828  -2
   2  11  10 471.928 16.0828   1
  -3  11  11 410.347 13.5019  -2
   3  11  10 410.347 13.5019   1
  -4  11  12 -3.7182 5.21959  -2
   4  11  10 -3.7182 5.21959   1
  -5  11  12 28.5241 3.67880  -2
   5  11  10 28.5241 3.67880   1
  -6  11  13 232.767 27.6439  -2
   6  11  10 232.767 27.6439   1
  -7  11  13 278.500 10.1050  -2
   7  11  10 278.500 10.1050   1
  -8  11  13 24.5206 5.33325  -2
   8  11  10 24.5206 5.33325   1
  -9  11  14 25.8335 4.22006  -2
   9  11  10 25.8335 4.22006   1
 -10  11  14 38.1143 7.07249  -2
  10  11  10 38.1143 7.07249   1
  10  12   6 -2.9937 5.46496  -2
 -10  12  10 -2.9937 5.46496   1
   9  12   6 16.8778 4.71247  -2
  -9  12  10 16.8778 4.71247   1
   8  12   7 -0.7408 9.59760  -2
  -8  12  10 -0.7408 9.59760   1
   7  12   7 23.0604 3.10730  -2
  -7  12  10 23.0604 3.10730   1
   6  12   8 26.4739 13.4869  -2
  -6  12  10 26.4739 13.4869   1
   5  12   8 26.9598 3.70170  -2
  -5  12  10 26.9598 3.70170   1
   4  12   8 12.2490 4.18037  -2
  -4  12  10 12.2490 4.18037   1
   3  12   9 35.3885 3.55606  -2
  -3  12  10 35.3885 3.55606   1
   2  12   9 62.7322 3.78340  -2
  -2  12  10 62.7322 3.78340   1
   1  12  10 18.0819 7.11140  -2
  -1  12  10 18.0819 7.11140   1
  -1  12  10 -2.9099 16.5939   2
   0  12  10 71.7603 3.50506  -2
   0  12  10 71.7603 3.50506   1
  -1  12  10 21.3051 6.17017  -2
   1  12  10 21.3051 6.17017   1
   1  12  10 -11.924 17.8566   1
  -2  12  11 -1.1926 4.12573  -2
   2  12  10 -1.1926 4.12573   1
  -3  12  11 24.9022 5.61350  -2
   3  12  10 24.9022 5.61350   1
  -4  12  12 84.7538 14.5654  -2
   4  12  10 84.7538 14.5654   1
  -5  12  12 46.3983 4.53998  -2
   5  12  10 46.3983 4.53998   1
  -6  12  13 59.3462 16.7709  -2
   6  12  10 59.3462 16.7709   1
  -7  12  13 9.79066 3.24434  -2
   7  12  10 9.79066 3.24434   1
  -8  12  13 10.1658 7.07833  -2
   8  12  10 10.1658 7.07833   1
  -9  12  14 16.8688 6.01116  -2
   9  12  10 16.8688 6.01116   1
  10  13   6 81.5842 9.06501  -2
 -10  13  10 81.5842 9.06501   1
   9  13   6 8.17432 4.24190  -2
  -9  13  10 8.17432 4.24190   1
   8  13   7 -11.654 7.12614  -2
  -8  13  10 -11.654 7.12614   1
   7  13   7 41.8809 3.72379  -2
  -7  13  10 41.8809 3.72379   1
   5  13   8 4.02856 2.82814  -2
  -5  13  10 4.02856 2.82814   1
   4  13   8 21.4769 5.03328  -2
  -4  13  10 21.4769 5.03328   1
   3  13   9 46.7367 4.90046  -2
  -3  13  10 46.7367 4.90046   1
   2  13   9 73.2525 4.61754  -2
  -2  13  10 73.2525 4.61754   1
   1  13  10 1.96532 12.5365  -2
  -1  13  10 1.96532 12.5365   1
   0  13  10 44.6194 4.00872  -2
   0  13  10 44.6194 4.00872   1
  -1  13  10 41.1622 9.02847  -2
   1  13  10 41.1622 9.02847   1
  -2  13  11 66.7938 7.63251  -2
   2  13  10 66.7938 7.63251   1
  -3  13  11 22.6384 5.16920  -2
   3  13  10 22.6384 5.16920   1
  -4  13  12 -0.9509 5.28653  -2
   4  13  10 -0.9509 5.28653   1
  -5  13  12 7.28157 3.65562  -2
   5  13  10 7.28157 3.65562   1
  -6  13  13 33.3034 15.1230  -2
   6  13  10 33.3034 15.1230   1
  -7  13  13 18.6155 3.49361  -2
   7  13  10 18.6155 3.49361   1
  -8  13  13 12.6711 6.44531  -2
   8  13  10 12.6711 6.44531   1
   9  14   6 15.1916 5.20835  -2
  -9  14  10 15.1916 5.20835   1
   8  14   7 55.6321 11.1635  -2
  -8  14  10 55.6321 11.1635   1
   7  14   7 42.8541 3.48844  -2
  -7  14  10 42.8541 3.48844   1
   5  14   8 10.3407 3.00939  -2
  -5  14  10 10.3407 3.00939   1
   4  14   8 312.690 14.6862  -2
  -4  14  10 312.690 14.6862   1
   3  14   9 50.0465 6.33298  -2
  -3  14  10 50.0465 6.33298   1
   2  14   9 68.4890 6.21468  -2
  -2  14  10 68.4890 6.21468   1
   1  14  10 -8.5962 12.4048  -2
  -1  14  10 -8.5962 12.4048   1
   0  14  10 616.704 19.6187  -2
   0  14  10 616.704 19.6187   1
  -1  14  10 1.48257 12.7193  -2
   1  14  10 1.48257 12.7193   1
  -2  14  11 38.7866 4.64218  -2
   2  14  10 38.7866 4.64218   1
  -3  14  11 128.115 8.83739  -2
   3  14  10 128.115 8.83739   1
  -4  14  12 320.578 17.4145  -2
   4  14  10 320.578 17.4145   1
  -5  14  12 2.07469 3.90132  -2
   5  14  10 2.07469 3.90132   1
  -7  14  13 6.66809 4.51988  -2
   7  14  10 6.66809 4.51988   1
   7  15   7 10.5813 2.98574  -2
  -7  15  10 10.5813 2.98574   1
   5  15   8 8.23310 3.24386  -2
  -5  15  10 8.23310 3.24386   1
   4  15   8 82.4638 8.22006  -2
  -4  15  10 82.4638 8.22006   1
   3  15   9 11.2732 5.32414  -2
  -3  15  10 11.2732 5.32414   1
   2  15   9 1.80724 4.04903  -2
  -2  15  10 1.80724 4.04903   1
   1  15  10 0.40240 10.0899  -2
  -1  15  10 0.40240 10.0899   1
   0  15  10 17.4263 2.84761  -2
   0  15  10 17.4263 2.84761   1
  -1  15  10 -7.2360 10.4654  -2
   1  15  10 -7.2360 10.4654   1
  -2  15  11 17.7068 4.46062  -2
   2  15  10 17.7068 4.46062   1
  -3  15  11 100.491 6.35551  -2
   3  15  10 100.491 6.35551   1
  -4  15  12 33.3217 6.46440  -2
   4  15  10 33.3217 6.46440   1
  -5  15  12 -5.2747 5.58897  -2
   5  15  10 -5.2747 5.58897   1
   5  16   8 3.08779 4.07059  -2
  -5  16  10 3.08779 4.07059   1
   4  16   8 4.76705 7.26604  -2
  -4  16  10 4.76705 7.26604   1
   3  16   9 -15.127 8.56434  -2
  -3  16  10 -15.127 8.56434   1
   2  16   9 14.9182 4.17914  -2
  -2  16  10 14.9182 4.17914   1
   1  16  10 20.5940 10.9451  -2
  -1  16  10 20.5940 10.9451   1
   0  16  10 13.6167 3.34026  -2
   0  16  10 13.6167 3.34026   1
  -1  16  10 11.8606 13.8946  -2
   1  16  10 11.8606 13.8946   1
  -2  16  11 6.35517 5.21828  -2
   2  16  10 6.35517 5.21828   1
  -3  16  11 -10.528 8.18379  -2
   3  16  10 -10.528 8.18379   1
  -4  16  12 25.5337 14.2133  -2
   4  16  10 25.5337 14.2133   1
  14   0   5 -0.4684 5.93093  -2
 -14   0  11 -0.4684 5.93093   1
  12   0   6 109.350 7.75150  -2
 -12   0  11 109.350 7.75150   1
  11   0   6 150.380 10.2910  -2
 -11   0  11 150.380 10.2910   1
  10   0   7 -1.0456 4.53660  -2
 -10   0  11 -1.0456 4.53660   1
   9   0   7 66.4946 7.47157  -2
  -9   0  11 66.4946 7.47157   1
   8   0   8 235.138 13.7219  -2
  -8   0  11 235.138 13.7219   1
   7   0   8 129.001 7.79066  -2
  -7   0  11 129.001 7.79066   1
  -6   0  11 2.96207 3.16148   1
   6   0   8 19.3242 2.89651  -2
  -6   0  11 19.3242 2.89651   1
   6   0   9 10.0811 10.1339  -2
  -6   0  11 10.0811 10.1339   1
  -6   0  11 6.09606 14.3583   2
   5   0   9 882.352 28.8482  -2
  -5   0  11 882.352 28.8482   1
   4   0   9 -2.5904 2.05002  -2
  -4   0  11 -2.5904 2.05002   1
   3   0  10 10.2260 2.53443  -2
  -3   0  11 10.2260 2.53443   1
   2   0  10 501.238 15.5257  -2
  -2   0  11 501.238 15.5257   1
   1   0  11 103.015 6.21428  -2
  -1   0  11 103.015 6.21428   1
  -1   0  11 57.1660 25.8718   1
  -1   0  11 97.0772 35.2026   2
   0   0  11 15.7347 1.75645  -2
   0   0  11 15.7347 1.75645   1
  -1   0  11 103.275 5.79897  -2
   1   0  11 103.275 5.79897   1
   1   0  11 -2.9001 12.1714   2
   1   0  11 -0.8423 15.1694   1
  -2   0  12 1198.72 46.5270  -2
   2   0  11 1198.72 46.5270   1
  -3   0  12 1765.11 59.5225  -2
   3   0  11 1765.11 59.5225   1
  -4   0  13 8.33687 3.26438  -2
   4   0  11 8.33687 3.26438   1
  -5   0  13 105.177 6.06193  -2
   5   0  11 105.177 6.06193   1
  -6   0  14 71.0666 12.0066  -2
   6   0  11 71.0666 12.0066   1
   6   0  11 -0.7907 2.86461   2
  -7   0  14 258.375 10.8735  -2
   7   0  11 258.375 10.8735   1
  -8   0  14 29.3442 5.25990  -2
   8   0  11 29.3442 5.25990   1
  -9   0  15 264.275 12.5063  -2
   9   0  11 264.275 12.5063   1
 -10   0  15 3.85139 4.08537  -2
  10   0  11 3.85139 4.08537   1
 -12   0  16 9.91808 4.83920  -2
  12   0  11 9.91808 4.83920   1
 -13   0  16 96.3353 21.6018  -2
  13   0  11 96.3353 21.6018   1
  14   1   5 9.89683 4.64348  -2
 -14   1  11 9.89683 4.64348   1
  12   1   6 147.998 6.89195  -2
 -12   1  11 147.998 6.89195   1
  11   1   6 94.6179 5.64444  -2
 -11   1  11 94.6179 5.64444   1
  10   1   7 77.2617 4.70101  -2
 -10   1  11 77.2617 4.70101   1
   9   1   7 76.4017 5.30874  -2
  -9   1  11 76.4017 5.30874   1
   8   1   8 38.4476 2.20155  -2
  -8   1  11 38.4476 2.20155   1
   7   1   8 190.061 6.42237  -2
  -7   1  11 190.061 6.42237   1
   6   1   8 65.2794 5.06774  -2
  -6   1  11 65.2794 5.06774   1
  -6   1  11 55.8303 4.74881   1
  -6   1  11 76.4150 23.5478   2
   5   1   9 81.6707 3.07485  -2
  -5   1  11 81.6707 3.07485   1
   4   1   9 215.249 5.92160  -2
  -4   1  11 215.249 5.92160   1
   3   1  10 129.983 4.23954  -2
  -3   1  11 129.983 4.23954   1
   2   1  10 176.196 4.67186  -2
  -2   1  11 176.196 4.67186   1
   1   1  11 303.239 9.38364  -2
  -1   1  11 303.239 9.38364   1
  -1   1  11 85.0326 20.5072   1
  -1   1  11 149.255 28.7191   2
   0   1  11 906.902 20.1539  -2
   0   1  11 906.902 20.1539   1
  -1   1  11 314.345 10.3387  -2
   1   1  11 314.345 10.3387   1
   1   1  11 198.075 32.9158   2
   1   1  11 164.355 29.6443   1
  -2   1  12 911.923 22.4251  -2
   2   1  11 911.923 22.4251   1
  -3   1  12 1060.43 27.4356  -2
   3   1  11 1060.43 27.4356   1
  -4   1  13 569.790 14.9590  -2
   4   1  11 569.790 14.9590   1
  -5   1  13 193.399 7.00536  -2
   5   1  11 193.399 7.00536   1
  -6   1  14 621.235 37.9379  -2
   6   1  11 621.235 37.9379   1
   6   1  11 183.964 12.0049   2
  -6   1  14 908.781 75.6911  -2
  -6   1  13 908.781 75.6911  -2
   6   1  11 908.781 75.6911   1
  -7   1  14 310.837 9.41897  -2
   7   1  11 310.837 9.41897   1
  -8   1  14 79.4351 5.54457  -2
   8   1  11 79.4351 5.54457   1
  -9   1  15 44.0487 3.50999  -2
   9   1  11 44.0487 3.50999   1
 -10   1  15 28.9625 3.69432  -2
  10   1  11 28.9625 3.69432   1
 -11   1  16 83.7346 8.48902  -2
  11   1  11 83.7346 8.48902   1
 -12   1  16 102.056 5.89794  -2
  12   1  11 102.056 5.89794   1
 -13   1  16 31.0965 9.27869  -2
  13   1  11 31.0965 9.27869   1
  14   2   5 85.6516 6.89370  -2
 -14   2  11 85.6516 6.89370   1
  12   2   6 95.5448 5.87401  -2
 -12   2  11 95.5448 5.87401   1
  11   2   6 80.9552 5.66505  -2
 -11   2  11 80.9552 5.66505   1
  10   2   7 153.131 7.53003  -2
 -10   2  11 153.131 7.53003   1
   9   2   7 806.153 22.6842  -2
  -9   2  11 806.153 22.6842   1
   8   2   8 322.353 11.6946  -2
  -8   2  11 322.353 11.6946   1
   7   2   8 74.4723 3.84812  -2
  -7   2  11 74.4723 3.84812   1
   6   2   8 385.224 16.5882  -2
  -6   2  11 385.224 16.5882   1
  -6   2  11 253.588 13.3862   1
  -6   2  11 353.208 66.4583   2
   5   2   9 1149.77 26.8691  -2
  -5   2  11 1149.77 26.8691   1
   4   2   9 135.124 4.21905  -2
  -4   2  11 135.124 4.21905   1
   3   2  10 132.294 4.25978  -2
  -3   2  11 132.294 4.25978   1
   2   2  10 68.7968 3.02672  -2
  -2   2  11 68.7968 3.02672   1
  -1   2  11 79.3212 19.2989   1
   1   2  11 418.803 14.0776  -2
  -1   2  11 418.803 14.0776   1
  -1   2  11 115.456 37.9845   2
   0   2  11 7.32693 1.06823  -2
   0   2  11 7.32693 1.06823   1
  -1   2  11 393.131 9.78463  -2
   1   2  11 393.131 9.78463   1
   1   2  11 374.420 66.9540   1
   1   2  11 362.491 46.3078   2
  -2   2  12 12.9968 1.73213  -2
   2   2  11 12.9968 1.73213   1
  -3   2  12 216.377 6.14719  -2
   3   2  11 216.377 6.14719   1
  -4   2  13 378.705 12.0407  -2
   4   2  11 378.705 12.0407   1
  -5   2  13 454.522 13.9506  -2
   5   2  11 454.522 13.9506   1
  -6   2  14 362.065 23.0649  -2
   6   2  11 362.065 23.0649   1
  -6   2  13 296.194 28.9430  -2
   6   2  11 296.194 28.9430   1
  -7   2  14 92.4203 4.14415  -2
   7   2  11 92.4203 4.14415   1
  -8   2  14 17.3444 3.49389  -2
   8   2  11 17.3444 3.49389   1
  -9   2  15 83.2294 4.58948  -2
   9   2  11 83.2294 4.58948   1
 -10   2  15 295.502 10.9741  -2
  10   2  11 295.502 10.9741   1
 -11   2  16 -10.465 5.12170  -2
  11   2  11 -10.465 5.12170   1
 -12   2  16 2.54606 3.61581  -2
  12   2  11 2.54606 3.61581   1
 -13   2  16 158.459 25.2797  -2
  13   2  11 158.459 25.2797   1
  14   3   5 9.18161 4.61640  -2
 -14   3  11 9.18161 4.61640   1
 -13   3  11 -3.6388 6.75508   2
  12   3   6 7.35013 4.17052  -2
 -12   3  11 7.35013 4.17052   1
  11   3   6 27.9888 4.05191  -2
 -11   3  11 27.9888 4.05191   1
  10   3   7 125.505 6.88122  -2
 -10   3  11 125.505 6.88122   1
   9   3   7 207.336 8.55490  -2
  -9   3  11 207.336 8.55490   1
   8   3   8 102.301 5.53042  -2
  -8   3  11 102.301 5.53042   1
   7   3   8 107.608 4.68693  -2
  -7   3  11 107.608 4.68693   1
  -6   3  11 12.3947 6.13223   2
  -6   3  11 7.26746 2.09078   1
   6   3   8 28.4200 6.32009  -2
  -6   3  11 28.4200 6.32009   1
   5   3   9 152.850 5.31092  -2
  -5   3  11 152.850 5.31092   1
   4   3   9 871.063 20.1511  -2
  -4   3  11 871.063 20.1511   1
   3   3  10 302.439 9.41548  -2
  -3   3  11 302.439 9.41548   1
   2   3  10 335.907 8.89268  -2
  -2   3  11 335.907 8.89268   1
  -1   3  11 302.811 40.5189   2
   1   3  11 662.278 18.0407  -2
  -1   3  11 662.278 18.0407   1
  -1   3  11 264.951 55.0543   1
   0   3  11 1652.38 38.7586  -2
   0   3  11 1652.38 38.7586   1
  -1   3  11 666.658 18.5842  -2
   1   3  11 666.658 18.5842   1
   1   3  11 500.711 82.6220   2
   1   3  11 352.483 44.8085   1
  -2   3  12 128.464 4.25932  -2
   2   3  11 128.464 4.25932   1
  -3   3  12 12.6537 2.22915  -2
   3   3  11 12.6537 2.22915   1
  -4   3  13 464.065 14.4449  -2
   4   3  11 464.065 14.4449   1
  -5   3  13 88.7669 4.17040  -2
   5   3  11 88.7669 4.17040   1
  -6   3  14 26.8173 6.71176  -2
   6   3  11 26.8173 6.71176   1
  -6   3  13 43.2697 11.7616  -2
   6   3  11 43.2697 11.7616   1
   6   3  11 0.95393 2.43750   2
  -7   3  14 237.774 7.97345  -2
   7   3  11 237.774 7.97345   1
  -8   3  14 6.02251 3.68826  -2
   8   3  11 6.02251 3.68826   1
  -9   3  15 49.3498 4.64767  -2
   9   3  11 49.3498 4.64767   1
 -10   3  15 -4.3338 3.94362  -2
  10   3  11 -4.3338 3.94362   1
 -11   3  16 65.8904 11.4234  -2
  11   3  11 65.8904 11.4234   1
 -12   3  16 13.2079 3.40063  -2
  12   3  11 13.2079 3.40063   1
 -13   3  16 23.1262 16.0045  -2
  13   3  11 23.1262 16.0045   1
 -15   4  11 8.70670 5.91766   2
  14   4   5 61.8107 6.20962  -2
 -14   4  11 61.8107 6.20962   1
 -13   4  11 74.7213 14.6711   2
  12   4   6 49.1010 4.16129  -2
 -12   4  11 49.1010 4.16129   1
  11   4   6 65.7464 4.90108  -2
 -11   4  11 65.7464 4.90108   1
  10   4   7 29.1791 3.28007  -2
 -10   4  11 29.1791 3.28007   1
   9   4   7 77.8204 4.70540  -2
  -9   4  11 77.8204 4.70540   1
   8   4   8 224.158 8.45792  -2
  -8   4  11 224.158 8.45792   1
   7   4   8 58.9664 3.59835  -2
  -7   4  11 58.9664 3.59835   1
   6   4   8 36.3380 6.72941  -2
  -6   4  11 36.3380 6.72941   1
  -6   4  11 35.8186 5.04596   1
  -6   4  11 42.5947 10.4851   2
   5   4   9 124.970 4.28991  -2
  -5   4  11 124.970 4.28991   1
   4   4   9 174.793 5.09481  -2
  -4   4  11 174.793 5.09481   1
   3   4  10 203.655 6.31445  -2
  -3   4  11 203.655 6.31445   1
   2   4  10 363.826 10.4593  -2
  -2   4  11 363.826 10.4593   1
  -1   4  11 635.817 67.4049   2
   1   4  11 559.128 15.4924  -2
  -1   4  11 559.128 15.4924   1
  -1   4  11 383.568 70.1888   1
   0   4  11 45.2172 2.23548  -2
   0   4  11 45.2172 2.23548   1
  -1   4  11 641.065 15.6940  -2
   1   4  11 641.065 15.6940   1
   1   4  11 38.0897 22.7735   2
   1   4  11 28.2775 15.1359   1
  -2   4  12 623.268 15.7760  -2
   2   4  11 623.268 15.7760   1
  -3   4  12 524.944 13.7985  -2
   3   4  11 524.944 13.7985   1
  -4   4  13 50.8535 3.17115  -2
   4   4  11 50.8535 3.17115   1
  -5   4  13 294.970 9.32588  -2
   5   4  11 294.970 9.32588   1
  -6   4  14 232.854 13.3115  -2
   6   4  11 232.854 13.3115   1
   6   4  11 90.3345 8.65170   2
  -6   4  13 127.137 16.6549  -2
   6   4  11 127.137 16.6549   1
  -7   4  14 39.7648 3.14575  -2
   7   4  11 39.7648 3.14575   1
  -8   4  14 70.7087 4.76636  -2
   8   4  11 70.7087 4.76636   1
  -9   4  15 107.989 6.49711  -2
   9   4  11 107.989 6.49711   1
 -10   4  15 85.8164 5.87037  -2
  10   4  11 85.8164 5.87037   1
 -11   4  16 3.66710 5.00142  -2
  11   4  11 3.66710 5.00142   1
 -12   4  16 20.5463 4.04470  -2
  12   4  11 20.5463 4.04470   1
  13   4  11 7.13947 8.22354   1
 -13   4  16 -4.1340 8.16837  -2
  13   4  11 -4.1340 8.16837   1
  14   5   5 2.38468 4.26977  -2
 -14   5  11 2.38468 4.26977   1
 -13   5  11 9.22674 8.05568   2
  12   5   6 93.6518 5.95702  -2
 -12   5  11 93.6518 5.95702   1
  11   5   6 206.862 10.6007  -2
 -11   5  11 206.862 10.6007   1
  10   5   7 26.6912 3.39811  -2
 -10   5  11 26.6912 3.39811   1
   9   5   7 100.714 4.79554  -2
  -9   5  11 100.714 4.79554   1
   8   5   8 261.702 10.3918  -2
  -8   5  11 261.702 10.3918   1
   7   5   8 711.947 19.1105  -2
  -7   5  11 711.947 19.1105   1
   6   5   8 609.903 45.1797  -2
  -6   5  11 609.903 45.1797   1
  -6   5  11 530.172 32.3525   1
  -6   5  11 738.564 54.2109   2
   5   5   9 91.4819 3.30735  -2
  -5   5  11 91.4819 3.30735   1
   4   5   9 526.438 14.0126  -2
  -4   5  11 526.438 14.0126   1
   3   5  10 670.798 18.7710  -2
  -3   5  11 670.798 18.7710   1
   2   5  10 1310.26 35.2150  -2
  -2   5  11 1310.26 35.2150   1
  -1   5  11 5.59185 2.11548   2
   1   5  11 16.4124 3.90705  -2
  -1   5  11 16.4124 3.90705   1
   0   5  11 13.5856 1.95146  -2
   0   5  11 13.5856 1.95146   1
  -1   5  11 10.9092 2.17870  -2
   1   5  11 10.9092 2.17870   1
   1   5  11 4.51771 1.85269   1
  -2   5  12 305.608 7.88250  -2
   2   5  11 305.608 7.88250   1
  -3   5  12 405.878 13.5508  -2
   3   5  11 405.878 13.5508   1
  -4   5  13 12.2927 3.93258  -2
   4   5  11 12.2927 3.93258   1
  -5   5  13 12.2306 2.53932  -2
   5   5  11 12.2306 2.53932   1
  -6   5  14 138.228 15.5864  -2
   6   5  11 138.228 15.5864   1
   6   5  11 3.62866 2.21344   2
  -6   5  13 368.053 33.5537  -2
   6   5  11 368.053 33.5537   1
   6   5  11 1.16791 5.72856   1
  -7   5  14 299.522 9.23027  -2
   7   5  11 299.522 9.23027   1
  -8   5  14 131.507 5.95640  -2
   8   5  11 131.507 5.95640   1
  -9   5  15 21.5002 4.61827  -2
   9   5  11 21.5002 4.61827   1
   9   5  11 12.3203 9.03411   1
 -10   5  15 67.9096 6.73048  -2
  10   5  11 67.9096 6.73048   1
 -11   5  16 100.385 9.38993  -2
  11   5  11 100.385 9.38993   1
 -12   5  16 115.222 6.77267  -2
  12   5  11 115.222 6.77267   1
 -13   5  16 1.17246 10.8439  -2
  13   5  11 1.17246 10.8439   1
 -13   5  17 22.0066 20.3526  -2
 -13   5  16 22.0066 20.3526  -2
  13   5  11 22.0066 20.3526   1
  14   6   5 10.1358 5.14683  -2
 -14   6  11 10.1358 5.14683   1
  12   6   6 124.221 6.44197  -2
 -12   6  11 124.221 6.44197   1
  11   6   6 34.8706 5.77553  -2
 -11   6  11 34.8706 5.77553   1
  10   6   7 9.12285 3.57631  -2
 -10   6  11 9.12285 3.57631   1
   9   6   7 6.30925 3.06410  -2
  -9   6  11 6.30925 3.06410   1
   8   6   8 192.687 8.09779  -2
  -8   6  11 192.687 8.09779   1
   7   6   8 381.526 10.7994  -2
  -7   6  11 381.526 10.7994   1
   6   6   8 92.6570 10.2785  -2
  -6   6  11 92.6570 10.2785   1
  -6   6  11 5.85304 5.04690   2
  -6   6  11 3.48269 2.84092   1
   5   6   9 78.1844 3.44080  -2
  -5   6  11 78.1844 3.44080   1
   4   6   9 127.545 4.25677  -2
  -4   6  11 127.545 4.25677   1
   3   6  10 210.939 8.81476  -2
  -3   6  11 210.939 8.81476   1
   2   6  10 272.632 10.6751  -2
  -2   6  11 272.632 10.6751   1
  -1   6  11 49.4204 5.43667   2
   1   6  11 100.639 7.33129  -2
  -1   6  11 100.639 7.33129   1
   0   6  11 124.265 3.74042  -2
   0   6  11 124.265 3.74042   1
  -1   6  11 107.429 5.35621  -2
   1   6  11 107.429 5.35621   1
   1   6  11 64.5065 6.39198   1
  -2   6  12 66.6332 3.46001  -2
   2   6  11 66.6332 3.46001   1
  -3   6  12 41.9996 3.97005  -2
   3   6  11 41.9996 3.97005   1
  -4   6  13 110.452 5.43970  -2
   4   6  11 110.452 5.43970   1
  -5   6  13 275.013 8.69074  -2
   5   6  11 275.013 8.69074   1
   6   6  11 3.59800 6.07263   1
  -6   6  14 7.32009 12.5176  -2
   6   6  11 7.32009 12.5176   1
  -6   6  13 17.4783 6.81091  -2
   6   6  11 17.4783 6.81091   1
   6   6  11 6.55614 2.17773   2
  -7   6  14 56.6558 3.70986  -2
   7   6  11 56.6558 3.70986   1
  -8   6  14 192.169 8.50588  -2
   8   6  11 192.169 8.50588   1
  -9   6  15 77.2514 7.78655  -2
   9   6  11 77.2514 7.78655   1
 -10   6  15 19.4909 3.89129  -2
  10   6  11 19.4909 3.89129   1
 -11   6  16 65.4155 8.18888  -2
  11   6  11 65.4155 8.18888   1
 -12   6  16 28.0257 4.58289  -2
  12   6  11 28.0257 4.58289   1
 -13   6  16 14.7809 15.1681  -2
  13   6  11 14.7809 15.1681   1
  14   7   5 22.9712 5.24145  -2
 -14   7  11 22.9712 5.24145   1
  12   7   6 73.4490 4.56058  -2
 -12   7  11 73.4490 4.56058   1
  11   7   6 130.502 9.18892  -2
 -11   7  11 130.502 9.18892   1
  10   7   7 252.386 10.4580  -2
 -10   7  11 252.386 10.4580   1
   9   7   7 8.18369 3.73910  -2
  -9   7  11 8.18369 3.73910   1
   8   7   8 156.083 7.64175  -2
  -8   7  11 156.083 7.64175   1
   7   7   8 118.737 5.04306  -2
  -7   7  11 118.737 5.04306   1
  -6   7  11 12.8983 7.88102   2
   6   7   8 49.9388 13.4755  -2
  -6   7  11 49.9388 13.4755   1
  -6   7  11 35.9889 5.43103   1
   5   7   9 53.6918 2.82932  -2
  -5   7  11 53.6918 2.82932   1
   4   7   9 128.033 5.77736  -2
  -4   7  11 128.033 5.77736   1
   3   7  10 9.18120 4.30690  -2
  -3   7  11 9.18120 4.30690   1
  -3   7  11 3.27669 1.03274   1
   2   7  10 43.2246 2.36820  -2
  -2   7  11 43.2246 2.36820   1
  -1   7  11 268.400 15.0093   1
   1   7  11 245.626 18.4935  -2
  -1   7  11 245.626 18.4935   1
   0   7  11 146.757 5.66451  -2
   0   7  11 146.757 5.66451   1
  -1   7  11 310.239 21.9096  -2
   1   7  11 310.239 21.9096   1
   1   7  11 22.1058 5.42723   1
  -2   7  12 219.028 8.08092  -2
   2   7  11 219.028 8.08092   1
  -3   7  12 34.1852 3.00580  -2
   3   7  11 34.1852 3.00580   1
  -4   7  13 74.1348 4.13397  -2
   4   7  11 74.1348 4.13397   1
  -5   7  13 243.060 8.11387  -2
   5   7  11 243.060 8.11387   1
  -6   7  14 139.723 19.7956  -2
   6   7  11 139.723 19.7956   1
   6   7  11 113.369 6.98595   2
   6   7  11 102.555 13.4106   1
  -6   7  13 171.347 24.6591  -2
   6   7  11 171.347 24.6591   1
  -7   7  14 12.2404 2.92029  -2
   7   7  11 12.2404 2.92029   1
  -8   7  14 52.6360 5.50825  -2
   8   7  11 52.6360 5.50825   1
  -9   7  15 91.0194 6.35015  -2
   9   7  11 91.0194 6.35015   1
 -10   7  15 7.56209 4.15117  -2
  10   7  11 7.56209 4.15117   1
 -11   7  16 21.6357 6.57154  -2
  11   7  11 21.6357 6.57154   1
 -12   7  16 26.9999 4.10308  -2
  12   7  11 26.9999 4.10308   1
  12   8   6 3.75290 3.30695  -2
 -12   8  11 3.75290 3.30695   1
  11   8   6 42.8833 8.27541  -2
 -11   8  11 42.8833 8.27541   1
  10   8   7 16.4900 3.56809  -2
 -10   8  11 16.4900 3.56809   1
   9   8   7 401.021 18.0972  -2
  -9   8  11 401.021 18.0972   1
   8   8   8 82.6218 5.25984  -2
  -8   8  11 82.6218 5.25984   1
   7   8   8 78.5562 2.96958  -2
  -7   8  11 78.5562 2.96958   1
  -6   8  11 1.62404 4.62305   2
  -6   8  11 11.5947 23.1557   1
   6   8   8 168.792 9.36623  -2
  -6   8  11 168.792 9.36623   1
   5   8   9 925.406 25.3154  -2
  -5   8  11 925.406 25.3154   1
   4   8   9 75.0416 4.30931  -2
  -4   8  11 75.0416 4.30931   1
   3   8  10 230.255 7.12687  -2
  -3   8  11 230.255 7.12687   1
   2   8  10 204.388 6.55633  -2
  -2   8  11 204.388 6.55633   1
   1   8  11 635.730 19.8814  -2
  -1   8  11 635.730 19.8814   1
  -1   8  11 77.8512 8.17073   2
   0   8  11 420.275 11.2858  -2
   0   8  11 420.275 11.2858   1
  -1   8  11 609.293 27.5829  -2
   1   8  11 609.293 27.5829   1
   1   8  11 553.232 44.3171   1
  -2   8  12 108.247 5.84907  -2
   2   8  11 108.247 5.84907   1
   2   8  11 27.0215 2.24624   2
  -3   8  12 195.849 6.59684  -2
   3   8  11 195.849 6.59684   1
  -4   8  13 152.889 7.56034  -2
   4   8  11 152.889 7.56034   1
  -5   8  13 701.685 20.3900  -2
   5   8  11 701.685 20.3900   1
  -6   8  13 77.5031 18.7198  -2
   6   8  11 77.5031 18.7198   1
   6   8  11 2.84875 1.88050   2
  -6   8  14 36.0955 13.1403  -2
   6   8  11 36.0955 13.1403   1
   6   8  11 -0.2876 5.74681   1
  -7   8  14 32.4144 3.54261  -2
   7   8  11 32.4144 3.54261   1
  -8   8  14 63.0837 6.69860  -2
   8   8  11 63.0837 6.69860   1
  -9   8  15 157.920 8.44670  -2
   9   8  11 157.920 8.44670   1
 -10   8  15 12.6920 4.26673  -2
  10   8  11 12.6920 4.26673   1
 -11   8  16 10.0593 6.14884  -2
  11   8  11 10.0593 6.14884   1
 -12   8  16 -0.5927 4.55338  -2
  12   8  11 -0.5927 4.55338   1
  12   9   6 18.6155 3.36890  -2
 -12   9  11 18.6155 3.36890   1
  11   9   6 72.6964 10.0717  -2
 -11   9  11 72.6964 10.0717   1
  10   9   7 39.0003 4.84475  -2
 -10   9  11 39.0003 4.84475   1
   9   9   7 14.8080 6.36182  -2
  -9   9  11 14.8080 6.36182   1
   8   9   8 61.3171 5.16906  -2
  -8   9  11 61.3171 5.16906   1
   7   9   8 52.6465 2.93543  -2
  -7   9  11 52.6465 2.93543   1
  -6   9  11 -7.2678 5.37492   2
   6   9   8 11.8308 4.75782  -2
  -6   9  11 11.8308 4.75782   1
   5   9   9 70.4666 4.22383  -2
  -5   9  11 70.4666 4.22383   1
   4   9   9 46.4806 4.02362  -2
  -4   9  11 46.4806 4.02362   1
   3   9  10 9.93476 2.55291  -2
  -3   9  11 9.93476 2.55291   1
   2   9  10 32.8954 2.81869  -2
  -2   9  11 32.8954 2.81869   1
   1   9  11 77.6107 6.31280  -2
  -1   9  11 77.6107 6.31280   1
  -1   9  11 2.96946 15.0750   2
   0   9  11 34.5080 2.01908  -2
   0   9  11 34.5080 2.01908   1
  -1   9  11 83.3157 8.23310  -2
   1   9  11 83.3157 8.23310   1
   1   9  11 29.8465 22.0195   1
  -2   9  12 7.99500 3.04033  -2
   2   9  11 7.99500 3.04033   1
  -3   9  12 44.6327 3.06630  -2
   3   9  11 44.6327 3.06630   1
  -4   9  13 88.1650 5.34179  -2
   4   9  11 88.1650 5.34179   1
   4   9  11 89.7812 5.34032   2
   4   9  11 112.222 12.6376   1
  -5   9  13 108.885 5.98545  -2
   5   9  11 108.885 5.98545   1
  -6   9  14 46.1892 14.7616  -2
   6   9  11 46.1892 14.7616   1
  -6   9  13 15.8118 15.8068  -2
   6   9  11 15.8118 15.8068   1
   6   9  11 3.03910 1.98227   2
  -7   9  14 80.0292 7.22723  -2
   7   9  11 80.0292 7.22723   1
  -8   9  14 57.6556 5.69098  -2
   8   9  11 57.6556 5.69098   1
  -9   9  15 92.1055 6.73478  -2
   9   9  11 92.1055 6.73478   1
 -10   9  15 1.42229 4.08963  -2
  10   9  11 1.42229 4.08963   1
 -11   9  16 7.33590 8.15468  -2
  11   9  11 7.33590 8.15468   1
  12  10   6 4.54481 5.92227  -2
 -12  10  11 4.54481 5.92227   1
  11  10   6 -9.0247 11.4247  -2
 -11  10  11 -9.0247 11.4247   1
  10  10   7 5.38763 3.56553  -2
 -10  10  11 5.38763 3.56553   1
   9  10   7 94.0172 5.77444  -2
  -9  10  11 94.0172 5.77444   1
   8  10   8 78.9249 10.7264  -2
  -8  10  11 78.9249 10.7264   1
   7  10   8 14.3358 2.26965  -2
  -7  10  11 14.3358 2.26965   1
   6  10   9 80.5287 16.2253  -2
  -6  10  11 80.5287 16.2253   1
   6  10   8 31.7391 11.4605  -2
  -6  10  11 31.7391 11.4605   1
  -6  10  11 58.4532 11.9551   2
   5  10   9 152.875 5.38902  -2
  -5  10  11 152.875 5.38902   1
   4  10   9 40.0847 4.12524  -2
  -4  10  11 40.0847 4.12524   1
   3  10  10 45.9859 3.93710  -2
  -3  10  11 45.9859 3.93710   1
   2  10  10 23.7237 3.21315  -2
  -2  10  11 23.7237 3.21315   1
  -1  10  11 107.810 24.6295   2
   1  10  11 80.6223 7.92833  -2
  -1  10  11 80.6223 7.92833   1
   0  10  11 7.20455 1.26266  -2
   0  10  11 7.20455 1.26266   1
  -1  10  11 133.769 9.17008  -2
   1  10  11 133.769 9.17008   1
   1  10  11 -2.9347 11.8748   1
  -2  10  12 170.483 6.97206  -2
   2  10  11 170.483 6.97206   1
  -3  10  12 136.481 6.75243  -2
   3  10  11 136.481 6.75243   1
  -4  10  13 86.6999 6.61788  -2
   4  10  11 86.6999 6.61788   1
  -5  10  13 21.6353 2.90031  -2
   5  10  11 21.6353 2.90031   1
  -6  10  14 -29.905 63.4549  -2
   6  10  11 -29.905 63.4549   1
   6  10  11 45.8300 20.7669   2
  -6  10  13 72.7022 12.5660  -2
   6  10  11 72.7022 12.5660   1
  -7  10  14 210.900 10.8601  -2
   7  10  11 210.900 10.8601   1
  -8  10  14 67.5660 6.38928  -2
   8  10  11 67.5660 6.38928   1
  -9  10  15 38.9851 5.41037  -2
   9  10  11 38.9851 5.41037   1
 -10  10  15 17.7201 4.01724  -2
  10  10  11 17.7201 4.01724   1
  11  10  11 36.4072 4.33977   1
  11  10  11 46.5922 13.8390   2
  11  11   6 49.0804 9.63510  -2
 -11  11  11 49.0804 9.63510   1
  10  11   7 48.1204 5.22219  -2
 -10  11  11 48.1204 5.22219   1
   9  11   7 11.9603 4.03569  -2
  -9  11  11 11.9603 4.03569   1
   8  11   8 37.8682 9.91105  -2
  -8  11  11 37.8682 9.91105   1
   7  11   8 231.837 8.27700  -2
  -7  11  11 231.837 8.27700   1
   5  11   9 18.5831 2.78299  -2
  -5  11  11 18.5831 2.78299   1
   4  11   9 78.0872 6.52497  -2
  -4  11  11 78.0872 6.52497   1
   3  11  10 541.591 16.4904  -2
  -3  11  11 541.591 16.4904   1
   2  11  10 398.657 11.9600  -2
  -2  11  11 398.657 11.9600   1
   1  11  11 7.27345 6.20057  -2
  -1  11  11 7.27345 6.20057   1
   0  11  11 25.6748 2.78977  -2
   0  11  11 25.6748 2.78977   1
  -1  11  11 10.2341 7.12246  -2
   1  11  11 10.2341 7.12246   1
  -2  11  12 356.274 12.4928  -2
   2  11  11 356.274 12.4928   1
  -3  11  12 155.905 7.85687  -2
   3  11  11 155.905 7.85687   1
  -4  11  13 101.171 10.4457  -2
   4  11  11 101.171 10.4457   1
  -5  11  13 12.6589 6.01297  -2
   5  11  11 12.6589 6.01297   1
  -6  11  14 51.1148 15.9825  -2
   6  11  11 51.1148 15.9825   1
  -7  11  14 156.236 6.92588  -2
   7  11  11 156.236 6.92588   1
  -8  11  14 43.5400 5.02677  -2
   8  11  11 43.5400 5.02677   1
  -9  11  15 19.2816 6.08433  -2
   9  11  11 19.2816 6.08433   1
 -10  11  15 10.3502 5.40689  -2
  10  11  11 10.3502 5.40689   1
  10  12   7 20.5661 7.24610  -2
 -10  12  11 20.5661 7.24610   1
   9  12   7 -4.3426 4.65591  -2
  -9  12  11 -4.3426 4.65591   1
   8  12   8 1.92118 10.5566  -2
  -8  12  11 1.92118 10.5566   1
   7  12   8 20.6836 3.52600  -2
  -7  12  11 20.6836 3.52600   1
   6  12   9 45.7068 14.9234  -2
  -6  12  11 45.7068 14.9234   1
   5  12   9 28.3425 3.44365  -2
  -5  12  11 28.3425 3.44365   1
   4  12   9 26.4091 5.52639  -2
  -4  12  11 26.4091 5.52639   1
   3  12  10 32.1441 3.67881  -2
  -3  12  11 32.1441 3.67881   1
   2  12  10 5.06269 2.63989  -2
  -2  12  11 5.06269 2.63989   1
   1  12  11 85.3451 8.66790  -2
  -1  12  11 85.3451 8.66790   1
   0  12  11 25.5162 2.90054  -2
   0  12  11 25.5162 2.90054   1
   1  12  11 94.3768 23.6307   2
  -1  12  11 66.6195 7.64649  -2
   1  12  11 66.6195 7.64649   1
  -2  12  12 27.4520 4.47279  -2
   2  12  11 27.4520 4.47279   1
  -3  12  12 45.7169 10.0897  -2
   3  12  11 45.7169 10.0897   1
  -4  12  13 32.8364 6.99084  -2
   4  12  11 32.8364 6.99084   1
  -5  12  13 2.25492 3.38137  -2
   5  12  11 2.25492 3.38137   1
  -6  12  14 1.21466 15.5916  -2
   6  12  11 1.21466 15.5916   1
  -7  12  14 12.0469 3.28678  -2
   7  12  11 12.0469 3.28678   1
  -8  12  14 83.8560 8.88883  -2
   8  12  11 83.8560 8.88883   1
  -9  12  15 -1.8505 5.72499  -2
   9  12  11 -1.8505 5.72499   1
   9  13   7 24.5419 5.04526  -2
  -9  13  11 24.5419 5.04526   1
   8  13   8 31.2224 8.20197  -2
  -8  13  11 31.2224 8.20197   1
   7  13   8 69.0122 4.74601  -2
  -7  13  11 69.0122 4.74601   1
   5  13   9 46.5022 3.51947  -2
  -5  13  11 46.5022 3.51947   1
   4  13   9 3.49694 3.80285  -2
  -4  13  11 3.49694 3.80285   1
   3  13  10 27.3161 3.85280  -2
  -3  13  11 27.3161 3.85280   1
   2  13  10 54.9705 4.26571  -2
  -2  13  11 54.9705 4.26571   1
   1  13  11 27.9666 15.0175  -2
  -1  13  11 27.9666 15.0175   1
   0  13  11 10.9346 2.78596  -2
   0  13  11 10.9346 2.78596   1
  -1  13  11 17.5320 11.2109  -2
   1  13  11 17.5320 11.2109   1
  -2  13  12 32.1949 5.91173  -2
   2  13  11 32.1949 5.91173   1
  -3  13  12 12.0428 3.90003  -2
   3  13  11 12.0428 3.90003   1
  -4  13  13 31.0868 6.29999  -2
   4  13  11 31.0868 6.29999   1
  -5  13  13 107.802 5.84173  -2
   5  13  11 107.802 5.84173   1
  -6  13  13 35.7129 18.0713  -2
   6  13  11 35.7129 18.0713   1
   6  13  11 -8.2774 5.91811   1
  -7  13  14 19.3768 3.81399  -2
   7  13  11 19.3768 3.81399   1
  -8  13  14 23.7636 14.5718  -2
   8  13  11 23.7636 14.5718   1
   8  14   8 26.5585 12.6151  -2
  -8  14  11 26.5585 12.6151   1
   7  14   8 19.6282 3.08601  -2
  -7  14  11 19.6282 3.08601   1
   5  14   9 302.122 10.2127  -2
  -5  14  11 302.122 10.2127   1
   4  14   9 13.5500 4.79292  -2
  -4  14  11 13.5500 4.79292   1
   3  14  10 101.206 7.00072  -2
  -3  14  11 101.206 7.00072   1
   2  14  10 45.7637 5.31110  -2
  -2  14  11 45.7637 5.31110   1
   1  14  11 212.880 18.1957  -2
  -1  14  11 212.880 18.1957   1
   0  14  11 0.77281 3.02763  -2
   0  14  11 0.77281 3.02763   1
  -1  14  11 210.931 14.8845  -2
   1  14  11 210.931 14.8845   1
  -2  14  12 20.2836 4.01479  -2
   2  14  11 20.2836 4.01479   1
  -3  14  12 10.9189 4.61005  -2
   3  14  11 10.9189 4.61005   1
  -4  14  13 9.25128 6.76487  -2
   4  14  11 9.25128 6.76487   1
  -5  14  13 168.601 8.62969  -2
   5  14  11 168.601 8.62969   1
  -7  14  14 15.1143 6.68744  -2
   7  14  11 15.1143 6.68744   1
   7  15   8 12.3478 3.37337  -2
  -7  15  11 12.3478 3.37337   1
   5  15   9 2.23976 3.30747  -2
  -5  15  11 2.23976 3.30747   1
   4  15   9 12.6837 6.45486  -2
  -4  15  11 12.6837 6.45486   1
   3  15  10 90.5865 7.48241  -2
  -3  15  11 90.5865 7.48241   1
   2  15  10 13.8160 4.33243  -2
  -2  15  11 13.8160 4.33243   1
   1  15  11 49.2560 11.6767  -2
  -1  15  11 49.2560 11.6767   1
   0  15  11 2.40498 2.82277  -2
   0  15  11 2.40498 2.82277   1
  -1  15  11 37.0953 14.7925  -2
   1  15  11 37.0953 14.7925   1
   1  15  11 50.2648 11.8595   1
  -2  15  12 9.10974 4.58310  -2
   2  15  11 9.10974 4.58310   1
  -3  15  12 -2.8123 4.83362  -2
   3  15  11 -2.8123 4.83362   1
  -4  15  13 31.6141 7.31591  -2
   4  15  11 31.6141 7.31591   1
  -5  15  13 10.3840 6.63605  -2
   5  15  11 10.3840 6.63605   1
  -5  16  11 29.6713 3.56384   1
  -5  16  11 17.5605 3.47096   2
   4  16   9 20.5308 6.84528  -2
  -4  16  11 20.5308 6.84528   1
   3  16  10 27.2945 9.06651  -2
  -3  16  11 27.2945 9.06651   1
   2  16  10 0.04911 5.98807  -2
  -2  16  11 0.04911 5.98807   1
   1  16  11 -5.4399 15.6559  -2
  -1  16  11 -5.4399 15.6559   1
   0  16  11 57.9647 5.61344  -2
   0  16  11 57.9647 5.61344   1
  -1  16  11 10.4042 9.43594  -2
   1  16  11 10.4042 9.43594   1
  -2  16  12 26.2649 5.67218  -2
   2  16  11 26.2649 5.67218   1
  -3  16  12 17.7028 12.5497  -2
   3  16  11 17.7028 12.5497   1
  14   0   6 11.2623 7.08261  -2
 -14   0  12 11.2623 7.08261   1
  12   0   7 80.4308 6.90676  -2
 -12   0  12 80.4308 6.90676   1
  11   0   7 47.5819 6.91324  -2
 -11   0  12 47.5819 6.91324   1
  10   0   8 52.0009 5.23474  -2
 -10   0  12 52.0009 5.23474   1
   9   0   8 -4.5878 5.14611  -2
  -9   0  12 -4.5878 5.14611   1
   8   0   9 55.2908 7.61688  -2
  -8   0  12 55.2908 7.61688   1
   7   0   9 1133.69 44.0041  -2
  -7   0  12 1133.69 44.0041   1
   6   0   9 127.591 7.96739  -2
  -6   0  12 127.591 7.96739   1
  -6   0  12 184.585 16.9656   1
   5   0  10 2.39895 2.02190  -2
  -5   0  12 2.39895 2.02190   1
   4   0  10 501.534 17.1726  -2
  -4   0  12 501.534 17.1726   1
   3   0  11 2043.72 68.2158  -2
  -3   0  12 2043.72 68.2158   1
   2   0  11 993.957 31.9166  -2
  -2   0  12 993.957 31.9166   1
   1   0  12 3.71421 5.71196  -2
  -1   0  12 3.71421 5.71196   1
  -1   0  12 15.7025 16.4428   1
   0   0  12 31.3943 2.74085  -2
   0   0  12 31.3943 2.74085   1
   1   0  12 2.52532 12.2430   2
  -1   0  12 1.44479 2.89620  -2
   1   0  12 1.44479 2.89620   1
  -2   0  13 415.276 15.3065  -2
   2   0  12 415.276 15.3065   1
  -3   0  13 113.295 5.93369  -2
   3   0  12 113.295 5.93369   1
  -4   0  14 233.445 10.7804  -2
   4   0  12 233.445 10.7804   1
  -5   0  14 12.3206 3.25376  -2
   5   0  12 12.3206 3.25376   1
   6   0  12 -0.1779 3.09302   2
  -6   0  15 -8.1236 45.6364  -2
   6   0  12 -8.1236 45.6364   1
  -7   0  15 18.2894 3.05122  -2
   7   0  12 18.2894 3.05122   1
  -8   0  15 76.4092 7.42377  -2
   8   0  12 76.4092 7.42377   1
  -9   0  16 -2.4023 3.76722  -2
   9   0  12 -2.4023 3.76722   1
 -10   0  16 113.820 6.96654  -2
  10   0  12 113.820 6.96654   1
 -11   0  17 147.706 11.9990  -2
  11   0  12 147.706 11.9990   1
 -12   0  17 26.3472 5.58876  -2
  12   0  12 26.3472 5.58876   1
 -13   0  17 98.6015 21.0751  -2
  13   0  12 98.6015 21.0751   1
  14   1   6 56.0471 6.07796  -2
 -14   1  12 56.0471 6.07796   1
  12   1   7 11.5769 3.41985  -2
 -12   1  12 11.5769 3.41985   1
  11   1   7 8.48682 5.13672  -2
 -11   1  12 8.48682 5.13672   1
  10   1   8 14.7671 3.58099  -2
 -10   1  12 14.7671 3.58099   1
   9   1   8 67.8222 5.18583  -2
  -9   1  12 67.8222 5.18583   1
   8   1   9 40.8419 3.33171  -2
  -8   1  12 40.8419 3.33171   1
   7   1   9 50.4311 2.45027  -2
  -7   1  12 50.4311 2.45027   1
   6   1   9 351.275 18.5886  -2
  -6   1  12 351.275 18.5886   1
  -6   1  12 9.71763 2.70328   1
   5   1  10 649.982 15.8020  -2
  -5   1  12 649.982 15.8020   1
   4   1  10 144.970 4.14972  -2
  -4   1  12 144.970 4.14972   1
   3   1  11 1033.18 25.4156  -2
  -3   1  12 1033.18 25.4156   1
   2   1  11 957.373 23.7330  -2
  -2   1  12 957.373 23.7330   1
  -1   1  12 234.415 42.7462   1
   1   1  12 691.632 23.0763  -2
  -1   1  12 691.632 23.0763   1
   0   1  12 310.566 7.81996  -2
   0   1  12 310.566 7.81996   1
   1   1  12 438.858 54.0839   2
  -1   1  12 675.517 19.2244  -2
   1   1  12 675.517 19.2244   1
  -2   1  13 727.633 19.6805  -2
   2   1  12 727.633 19.6805   1
  -3   1  13 716.084 18.3680  -2
   3   1  12 716.084 18.3680   1
  -4   1  14 271.114 9.40063  -2
   4   1  12 271.114 9.40063   1
  -5   1  14 54.5162 3.78832  -2
   5   1  12 54.5162 3.78832   1
  -6   1  15 15.8182 8.96421  -2
   6   1  12 15.8182 8.96421   1
   6   1  12 4.82877 3.22171   2
  -7   1  15 728.035 19.0446  -2
   7   1  12 728.035 19.0446   1
  -8   1  15 155.206 6.51323  -2
   8   1  12 155.206 6.51323   1
  -9   1  16 11.6882 3.12562  -2
   9   1  12 11.6882 3.12562   1
   9   1  12 8.18383 8.08506   1
 -10   1  16 116.449 5.05428  -2
  10   1  12 116.449 5.05428   1
 -11   1  17 184.274 9.46279  -2
  11   1  12 184.274 9.46279   1
 -12   1  17 44.1839 4.61960  -2
  12   1  12 44.1839 4.61960   1
 -13   1  17 36.3017 9.36643  -2
  13   1  12 36.3017 9.36643   1
  14   2   6 168.526 10.3249  -2
 -14   2  12 168.526 10.3249   1
  12   2   7 48.5863 3.97403  -2
 -12   2  12 48.5863 3.97403   1
  11   2   7 242.112 11.6743  -2
 -11   2  12 242.112 11.6743   1
  10   2   8 369.393 13.1279  -2
 -10   2  12 369.393 13.1279   1
   9   2   8 60.2178 3.61103  -2
  -9   2  12 60.2178 3.61103   1
   8   2   9 149.327 6.91668  -2
  -8   2  12 149.327 6.91668   1
   7   2   9 265.296 7.89420  -2
  -7   2  12 265.296 7.89420   1
   6   2   9 171.269 12.5505  -2
  -6   2  12 171.269 12.5505   1
  -6   2  12 48.1247 4.88295   1
  -6   2  12 51.7590 28.1323   2
   5   2  10 9.63164 1.20526  -2
  -5   2  12 9.63164 1.20526   1
   4   2  10 515.383 12.1497  -2
  -4   2  12 515.383 12.1497   1
   3   2  11 264.571 6.82442  -2
  -3   2  12 264.571 6.82442   1
   2   2  11 11.0026 2.10611  -2
  -2   2  12 11.0026 2.10611   1
   1   2  12 417.330 14.3445  -2
  -1   2  12 417.330 14.3445   1
   0   2  12 652.288 15.5042  -2
   0   2  12 652.288 15.5042   1
  -1   2  12 354.005 11.3076  -2
   1   2  12 354.005 11.3076   1
   1   2  12 517.981 86.5672   2
  -2   2  13 115.157 4.39181  -2
   2   2  12 115.157 4.39181   1
  -3   2  13 29.5645 2.94103  -2
   3   2  12 29.5645 2.94103   1
  -4   2  14 590.772 17.4533  -2
   4   2  12 590.772 17.4533   1
  -5   2  14 1186.09 32.1751  -2
   5   2  12 1186.09 32.1751   1
  -6   2  15 168.587 14.1034  -2
   6   2  12 168.587 14.1034   1
  -6   2  14 137.833 13.3010  -2
   6   2  12 137.833 13.3010   1
   6   2  12 179.732 18.2202   2
  -7   2  15 17.8573 2.14704  -2
   7   2  12 17.8573 2.14704   1
  -8   2  15 213.731 8.39730  -2
   8   2  12 213.731 8.39730   1
  -9   2  16 336.916 11.3520  -2
   9   2  12 336.916 11.3520   1
 -10   2  16 57.0680 5.54504  -2
  10   2  12 57.0680 5.54504   1
 -11   2  17 14.8227 4.72367  -2
  11   2  12 14.8227 4.72367   1
 -12   2  17 12.7593 3.88096  -2
  12   2  12 12.7593 3.88096   1
 -13   2  17 23.2531 14.6572  -2
  13   2  12 23.2531 14.6572   1
 -15   3  12 -2.4816 5.17885   2
  14   3   6 35.9726 5.40429  -2
 -14   3  12 35.9726 5.40429   1
  13   3   6 5.01619 9.30343  -2
 -13   3  12 5.01619 9.30343   1
  12   3   7 63.1867 5.18500  -2
 -12   3  12 63.1867 5.18500   1
  11   3   7 33.2146 4.52320  -2
 -11   3  12 33.2146 4.52320   1
  10   3   8 26.1756 4.44424  -2
 -10   3  12 26.1756 4.44424   1
   9   3   8 294.999 11.7885  -2
  -9   3  12 294.999 11.7885   1
   8   3   9 62.1520 5.44943  -2
  -8   3  12 62.1520 5.44943   1
   7   3   9 107.432 4.63912  -2
  -7   3  12 107.432 4.63912   1
   6   3   9 63.5369 7.51987  -2
  -6   3  12 63.5369 7.51987   1
  -6   3  12 51.0344 6.13088   1
   5   3  10 858.178 21.7244  -2
  -5   3  12 858.178 21.7244   1
   4   3  10 180.135 5.48795  -2
  -4   3  12 180.135 5.48795   1
   3   3  11 23.3726 2.05876  -2
  -3   3  12 23.3726 2.05876   1
   2   3  11 145.781 5.09147  -2
  -2   3  12 145.781 5.09147   1
   1   3  12 49.0052 3.51306  -2
  -1   3  12 49.0052 3.51306   1
  -1   3  12 16.9717 17.4533   1
   0   3  12 143.177 5.26027  -2
   0   3  12 143.177 5.26027   1
  -1   3  12 38.4225 2.18768  -2
   1   3  12 38.4225 2.18768   1
   1   3  12 65.3531 29.8542   2
  -2   3  13 288.600 8.89451  -2
   2   3  12 288.600 8.89451   1
  -3   3  13 230.347 7.64861  -2
   3   3  12 230.347 7.64861   1
  -4   3  14 84.0670 4.22572  -2
   4   3  12 84.0670 4.22572   1
  -5   3  14 13.2471 2.65012  -2
   5   3  12 13.2471 2.65012   1
  -6   3  15 78.4666 9.04549  -2
   6   3  12 78.4666 9.04549   1
   6   3  12 2.01847 2.22441   2
  -6   3  14 46.9029 9.57829  -2
   6   3  12 46.9029 9.57829   1
  -7   3  15 38.9913 3.43839  -2
   7   3  12 38.9913 3.43839   1
  -8   3  15 53.7072 4.38082  -2
   8   3  12 53.7072 4.38082   1
  -9   3  16 12.2338 3.11813  -2
   9   3  12 12.2338 3.11813   1
 -10   3  16 6.51870 5.29991  -2
  10   3  12 6.51870 5.29991   1
 -11   3  17 0.13434 6.50771  -2
  11   3  12 0.13434 6.50771   1
 -12   3  17 42.3878 4.71765  -2
  12   3  12 42.3878 4.71765   1
 -13   3  17 13.1081 15.6542  -2
  13   3  12 13.1081 15.6542   1
  14   4   6 32.8296 5.17476  -2
 -14   4  12 32.8296 5.17476   1
 -13   4  12 -2.2791 7.02103   2
  12   4   7 0.57156 3.67081  -2
 -12   4  12 0.57156 3.67081   1
  11   4   7 21.6055 3.32692  -2
 -11   4  12 21.6055 3.32692   1
  10   4   8 -3.4427 2.90474  -2
 -10   4  12 -3.4427 2.90474   1
   9   4   8 45.0167 3.39053  -2
  -9   4  12 45.0167 3.39053   1
   8   4   9 7.51631 3.28108  -2
  -8   4  12 7.51631 3.28108   1
   7   4   9 339.078 11.4486  -2
  -7   4  12 339.078 11.4486   1
  -6   4  12 273.923 24.9208   2
   6   4   9 205.847 13.7192  -2
  -6   4  12 205.847 13.7192   1
  -6   4  12 187.032 12.3077   1
   5   4  10 151.867 5.08613  -2
  -5   4  12 151.867 5.08613   1
   4   4  10 420.667 12.3313  -2
  -4   4  12 420.667 12.3313   1
   3   4  11 530.919 14.7913  -2
  -3   4  12 530.919 14.7913   1
   2   4  11 526.035 13.9556  -2
  -2   4  12 526.035 13.9556   1
  -1   4  12 14.4140 13.0124   2
   1   4  12 48.0933 3.14018  -2
  -1   4  12 48.0933 3.14018   1
  -1   4  12 1.86564 12.4878   1
   0   4  12 400.549 10.3449  -2
   0   4  12 400.549 10.3449   1
  -1   4  12 37.8677 2.67109  -2
   1   4  12 37.8677 2.67109   1
   1   4  12 77.4778 34.1171   2
   1   4  12 42.2387 21.7086   1
  -2   4  13 47.6474 2.43388  -2
   2   4  12 47.6474 2.43388   1
  -3   4  13 94.3306 3.91678  -2
   3   4  12 94.3306 3.91678   1
  -4   4  14 132.685 6.92131  -2
   4   4  12 132.685 6.92131   1
  -5   4  14 106.150 4.38623  -2
   5   4  12 106.150 4.38623   1
  -6   4  15 28.0155 6.18283  -2
   6   4  12 28.0155 6.18283   1
  -6   4  14 190.676 16.0061  -2
   6   4  12 190.676 16.0061   1
   6   4  12 8.08709 2.36107   2
  -7   4  15 71.6977 4.42637  -2
   7   4  12 71.6977 4.42637   1
  -8   4  15 24.0831 3.70834  -2
   8   4  12 24.0831 3.70834   1
  -9   4  16 108.724 5.08606  -2
   9   4  12 108.724 5.08606   1
 -10   4  16 101.088 6.31583  -2
  10   4  12 101.088 6.31583   1
 -11   4  17 38.2478 5.69556  -2
  11   4  12 38.2478 5.69556   1
  11   4  12 34.9331 11.5406   1
 -12   4  17 7.12561 3.99528  -2
  12   4  12 7.12561 3.99528   1
 -13   4  17 -16.261 14.3456  -2
  13   4  12 -16.261 14.3456   1
 -13   4  18 15.0888 11.6673  -2
 -13   4  17 15.0888 11.6673  -2
  13   4  12 15.0888 11.6673   1
  14   5   6 16.1222 5.06225  -2
 -14   5  12 16.1222 5.06225   1
 -13   5  12 11.0575 8.23848   2
  12   5   7 118.983 6.31673  -2
 -12   5  12 118.983 6.31673   1
  11   5   7 116.660 7.81557  -2
 -11   5  12 116.660 7.81557   1
  10   5   8 26.7612 3.11275  -2
 -10   5  12 26.7612 3.11275   1
   9   5   8 39.4542 3.46950  -2
  -9   5  12 39.4542 3.46950   1
   8   5   9 134.511 6.58988  -2
  -8   5  12 134.511 6.58988   1
   7   5   9 647.666 17.8899  -2
  -7   5  12 647.666 17.8899   1
  -6   5  12 21.4492 3.55639   1
  -6   5  12 28.8070 8.42250   2
   6   5   9 124.895 8.82684  -2
  -6   5  12 124.895 8.82684   1
   5   5  10 174.867 5.38995  -2
  -5   5  12 174.867 5.38995   1
   4   5  10 53.6283 3.72003  -2
  -4   5  12 53.6283 3.72003   1
   3   5  11 400.061 14.0683  -2
  -3   5  12 400.061 14.0683   1
   2   5  11 315.194 10.1952  -2
  -2   5  12 315.194 10.1952   1
   1   5  12 159.658 10.5471  -2
  -1   5  12 159.658 10.5471   1
  -1   5  12 129.371 46.2804   1
   0   5  12 4.12592 1.87541  -2
   0   5  12 4.12592 1.87541   1
  -1   5  12 180.682 7.00257  -2
   1   5  12 180.682 7.00257   1
   1   5  12 24.0997 23.1842   2
  -2   5  13 335.090 10.4110  -2
   2   5  12 335.090 10.4110   1
  -3   5  13 93.7743 7.24679  -2
   3   5  12 93.7743 7.24679   1
  -4   5  14 43.8309 4.56978  -2
   4   5  12 43.8309 4.56978   1
   4   5  12 25.5921 5.71283   1
  -5   5  14 15.2794 2.77786  -2
   5   5  12 15.2794 2.77786   1
  -6   5  15 142.434 13.4273  -2
   6   5  12 142.434 13.4273   1
  -6   5  14 128.121 13.2599  -2
   6   5  12 128.121 13.2599   1
   6   5  12 4.86376 1.20245   2
  -7   5  15 244.855 7.24909  -2
   7   5  12 244.855 7.24909   1
  -8   5  15 109.891 5.72673  -2
   8   5  12 109.891 5.72673   1
  -9   5  16 107.184 5.82861  -2
   9   5  12 107.184 5.82861   1
 -10   5  16 1.16141 4.32677  -2
  10   5  12 1.16141 4.32677   1
 -11   5  17 134.919 12.3632  -2
  11   5  12 134.919 12.3632   1
  11   5  12 78.4619 13.6393   1
 -12   5  17 70.9427 5.63359  -2
  12   5  12 70.9427 5.63359   1
  14   6   6 -1.5983 5.56301  -2
 -14   6  12 -1.5983 5.56301   1
  12   6   7 34.6278 4.17273  -2
 -12   6  12 34.6278 4.17273   1
  11   6   7 34.8806 5.61159  -2
 -11   6  12 34.8806 5.61159   1
  10   6   8 53.7985 4.37837  -2
 -10   6  12 53.7985 4.37837   1
   9   6   8 89.0275 5.30078  -2
  -9   6  12 89.0275 5.30078   1
   8   6   9 20.9240 3.68579  -2
  -8   6  12 20.9240 3.68579   1
   7   6   9 126.245 4.65013  -2
  -7   6  12 126.245 4.65013   1
  -6   6  12 118.548 14.4155   2
  -6   6  12 104.515 8.03287   1
   6   6   9 100.812 11.3123  -2
  -6   6  12 100.812 11.3123   1
   5   6  10 65.5454 2.73041  -2
  -5   6  12 65.5454 2.73041   1
   4   6  10 73.6703 6.30592  -2
  -4   6  12 73.6703 6.30592   1
   3   6  11 12.2999 4.51179  -2
  -3   6  12 12.2999 4.51179   1
   2   6  11 48.0410 4.99429  -2
  -2   6  12 48.0410 4.99429   1
   1   6  12 144.328 14.9311  -2
  -1   6  12 144.328 14.9311   1
  -1   6  12 -4.8095 12.2968   2
   0   6  12 414.762 13.1824  -2
   0   6  12 414.762 13.1824   1
  -1   6  12 163.762 7.74245  -2
   1   6  12 163.762 7.74245   1
   1   6  12 153.055 43.0674   1
  -2   6  13 76.5992 4.60239  -2
   2   6  12 76.5992 4.60239   1
  -3   6  13 159.251 6.82567  -2
   3   6  12 159.251 6.82567   1
  -4   6  14 76.3086 4.19353  -2
   4   6  12 76.3086 4.19353   1
  -5   6  14 45.6449 3.55821  -2
   5   6  12 45.6449 3.55821   1
   6   6  12 34.4994 9.46624   1
  -6   6  15 52.9768 13.9419  -2
   6   6  12 52.9768 13.9419   1
  -7   6  15 117.236 5.45680  -2
   7   6  12 117.236 5.45680   1
  -8   6  15 33.0330 5.00276  -2
   8   6  12 33.0330 5.00276   1
  -9   6  16 89.8796 8.71069  -2
   9   6  12 89.8796 8.71069   1
 -10   6  16 42.5820 4.45886  -2
  10   6  12 42.5820 4.45886   1
 -11   6  17 13.1831 6.59952  -2
  11   6  12 13.1831 6.59952   1
 -12   6  17 1.98996 4.85835  -2
  12   6  12 1.98996 4.85835   1
  12   7   7 21.0016 3.16748  -2
 -12   7  12 21.0016 3.16748   1
  11   7   7 85.5399 6.49235  -2
 -11   7  12 85.5399 6.49235   1
  10   7   8 30.0294 4.61719  -2
 -10   7  12 30.0294 4.61719   1
   9   7   8 226.241 9.12384  -2
  -9   7  12 226.241 9.12384   1
   8   7   9 18.0249 3.73548  -2
  -8   7  12 18.0249 3.73548   1
   7   7   9 2.59457 2.26636  -2
  -7   7  12 2.59457 2.26636   1
  -6   7  12 245.660 22.5420   2
   6   7   9 430.743 27.6605  -2
  -6   7  12 430.743 27.6605   1
  -6   7  12 197.378 17.4087   1
   5   7  10 256.833 8.29706  -2
  -5   7  12 256.833 8.29706   1
   4   7  10 331.481 12.0974  -2
  -4   7  12 331.481 12.0974   1
  -4   7  12 127.346 10.3164   1
   3   7  11 31.2508 4.20788  -2
  -3   7  12 31.2508 4.20788   1
   2   7  11 185.170 8.25605  -2
  -2   7  12 185.170 8.25605   1
  -1   7  12 10.5822 13.8499   1
   1   7  12 137.545 16.4297  -2
  -1   7  12 137.545 16.4297   1
  -1   7  12 2.51166 2.07990   2
   0   7  12 445.453 13.2311  -2
   0   7  12 445.453 13.2311   1
  -1   7  12 141.950 11.1971  -2
   1   7  12 141.950 11.1971   1
   1   7  12 137.659 11.8955   1
   1   7  12 105.680 34.6790   2
  -2   7  13 25.1598 3.56493  -2
   2   7  12 25.1598 3.56493   1
  -3   7  13 135.059 5.53106  -2
   3   7  12 135.059 5.53106   1
  -4   7  14 151.713 6.64759  -2
   4   7  12 151.713 6.64759   1
  -5   7  14 55.3950 3.69876  -2
   5   7  12 55.3950 3.69876   1
  -6   7  15 66.2896 15.5105  -2
   6   7  12 66.2896 15.5105   1
   6   7  12 14.5889 7.73295   1
  -7   7  15 105.955 5.31829  -2
   7   7  12 105.955 5.31829   1
  -8   7  15 23.5148 4.86700  -2
   8   7  12 23.5148 4.86700   1
  -9   7  16 -2.0263 4.59996  -2
   9   7  12 -2.0263 4.59996   1
 -10   7  16 84.5054 6.06243  -2
  10   7  12 84.5054 6.06243   1
 -11   7  17 12.8707 7.34252  -2
  11   7  12 12.8707 7.34252   1
 -12   7  17 27.2650 6.50819  -2
  12   7  12 27.2650 6.50819   1
  12   8   7 17.0562 3.10213  -2
 -12   8  12 17.0562 3.10213   1
  11   8   7 26.4796 5.15573  -2
 -11   8  12 26.4796 5.15573   1
  10   8   8 432.658 16.1835  -2
 -10   8  12 432.658 16.1835   1
   9   8   8 8.54398 4.54334  -2
  -9   8  12 8.54398 4.54334   1
   8   8   9 72.0698 4.96061  -2
  -8   8  12 72.0698 4.96061   1
   7   8   9 27.9545 2.68462  -2
  -7   8  12 27.9545 2.68462   1
   6   8   9 134.343 11.5998  -2
  -6   8  12 134.343 11.5998   1
  -6   8  12 12.0080 22.1030   1
  -6   8  12 25.4200 6.22163   2
   5   8  10 151.048 5.94246  -2
  -5   8  12 151.048 5.94246   1
   4   8  10 813.953 20.6340  -2
  -4   8  12 813.953 20.6340   1
   3   8  11 164.404 6.56187  -2
  -3   8  12 164.404 6.56187   1
   2   8  11 142.462 5.67543  -2
  -2   8  12 142.462 5.67543   1
   1   8  12 203.623 12.2053  -2
  -1   8  12 203.623 12.2053   1
  -1   8  12 89.6238 8.74218   2
  -1   8  12 95.6045 7.82918   1
   0   8  12 1203.12 29.5163  -2
   0   8  12 1203.12 29.5163   1
  -1   8  12 185.604 12.8397  -2
   1   8  12 185.604 12.8397   1
  -2   8  13 121.340 6.61649  -2
   2   8  12 121.340 6.61649   1
  -3   8  13 127.171 5.53331  -2
   3   8  12 127.171 5.53331   1
  -4   8  14 304.074 11.3113  -2
   4   8  12 304.074 11.3113   1
  -5   8  14 111.468 5.06531  -2
   5   8  12 111.468 5.06531   1
  -6   8  15 69.3204 16.6798  -2
   6   8  12 69.3204 16.6798   1
   6   8  12 38.3964 9.87682   1
  -6   8  14 52.6332 17.8327  -2
   6   8  12 52.6332 17.8327   1
  -7   8  15 6.13076 3.97172  -2
   7   8  12 6.13076 3.97172   1
  -8   8  15 36.8231 4.98028  -2
   8   8  12 36.8231 4.98028   1
  -9   8  16 89.0022 5.99386  -2
   9   8  12 89.0022 5.99386   1
 -10   8  16 7.94708 4.42372  -2
  10   8  12 7.94708 4.42372   1
 -11   8  17 10.9308 7.68660  -2
  11   8  12 10.9308 7.68660   1
  12   9   7 22.7879 3.39186  -2
 -12   9  12 22.7879 3.39186   1
  11   9   7 -0.7996 5.69778  -2
 -11   9  12 -0.7996 5.69778   1
  10   9   8 17.4414 3.58553  -2
 -10   9  12 17.4414 3.58553   1
   9   9   8 53.6929 4.49464  -2
  -9   9  12 53.6929 4.49464   1
   8   9   9 23.2514 5.27890  -2
  -8   9  12 23.2514 5.27890   1
   7   9   9 3.60033 1.82667  -2
  -7   9  12 3.60033 1.82667   1
   6   9   9 27.6366 7.54664  -2
  -6   9  12 27.6366 7.54664   1
  -6   9  12 25.0055 8.72258   2
   5   9  10 55.9796 3.35186  -2
  -5   9  12 55.9796 3.35186   1
   4   9  10 15.8306 2.58986  -2
  -4   9  12 15.8306 2.58986   1
   3   9  11 44.8015 2.28576  -2
  -3   9  12 44.8015 2.28576   1
   2   9  11 13.0585 1.54020  -2
  -2   9  12 13.0585 1.54020   1
   1   9  12 20.9015 6.05719  -2
  -1   9  12 20.9015 6.05719   1
  -1   9  12 15.2749 2.58133   1
   0   9  12 253.576 7.62265  -2
   0   9  12 253.576 7.62265   1
  -1   9  12 0.57911 6.56972  -2
   1   9  12 0.57911 6.56972   1
   1   9  12 1.40954 1.44402   2
  -2   9  13 70.1968 4.30674  -2
   2   9  12 70.1968 4.30674   1
  -3   9  13 135.676 6.37753  -2
   3   9  12 135.676 6.37753   1
  -4   9  14 449.846 14.9720  -2
   4   9  12 449.846 14.9720   1
  -5   9  14 57.2488 4.01405  -2
   5   9  12 57.2488 4.01405   1
  -6   9  15 72.7554 60.0089  -2
   6   9  12 72.7554 60.0089   1
  -7   9  15 30.9709 4.36487  -2
   7   9  12 30.9709 4.36487   1
  -8   9  15 84.2051 6.58184  -2
   8   9  12 84.2051 6.58184   1
  -9   9  16 -1.3992 4.45416  -2
   9   9  12 -1.3992 4.45416   1
 -10   9  16 26.3290 4.63634  -2
  10   9  12 26.3290 4.63634   1
 -11   9  17 32.2062 9.17323  -2
  11   9  12 32.2062 9.17323   1
  12  10   7 6.54550 5.08682  -2
 -12  10  12 6.54550 5.08682   1
  11  10   7 -10.468 7.60174  -2
 -11  10  12 -10.468 7.60174   1
  10  10   8 32.3461 4.27866  -2
 -10  10  12 32.3461 4.27866   1
   9  10   8 20.8719 4.77083  -2
  -9  10  12 20.8719 4.77083   1
   8  10   9 34.7868 6.09354  -2
  -8  10  12 34.7868 6.09354   1
   7  10   9 4.33396 2.52346  -2
  -7  10  12 4.33396 2.52346   1
   6  10   9 142.179 18.7014  -2
  -6  10  12 142.179 18.7014   1
  -6  10  12 145.747 19.3687   2
   5  10  10 7.16736 2.66663  -2
  -5  10  12 7.16736 2.66663   1
   4  10  10 41.4648 4.49537  -2
  -4  10  12 41.4648 4.49537   1
   3  10  11 124.332 5.47812  -2
  -3  10  12 124.332 5.47812   1
   2  10  11 166.216 6.68841  -2
  -2  10  12 166.216 6.68841   1
   1  10  12 135.705 10.8012  -2
  -1  10  12 135.705 10.8012   1
  -1  10  12 49.4958 30.3216   2
   0  10  12 1.99647 2.51562  -2
   0  10  12 1.99647 2.51562   1
  -1  10  12 158.495 11.8295  -2
   1  10  12 158.495 11.8295   1
   1  10  12 120.665 37.5620   1
  -2  10  13 384.801 13.5340  -2
   2  10  12 384.801 13.5340   1
  -3  10  13 189.869 8.57639  -2
   3  10  12 189.869 8.57639   1
  -4  10  14 43.0525 5.59889  -2
   4  10  12 43.0525 5.59889   1
  -5  10  14 77.5356 4.56985  -2
   5  10  12 77.5356 4.56985   1
  -6  10  15 256.288 29.0705  -2
   6  10  12 256.288 29.0705   1
  -7  10  15 61.0887 4.67620  -2
   7  10  12 61.0887 4.67620   1
  -8  10  15 97.4128 6.31451  -2
   8  10  12 97.4128 6.31451   1
  -9  10  16 13.9951 5.12815  -2
   9  10  12 13.9951 5.12815   1
 -10  10  16 70.6758 8.03017  -2
  10  10  12 70.6758 8.03017   1
  11  11   7 36.8469 14.2900  -2
 -11  11  12 36.8469 14.2900   1
  10  11   8 0.82926 5.14518  -2
 -10  11  12 0.82926 5.14518   1
   9  11   8 17.1574 4.27981  -2
  -9  11  12 17.1574 4.27981   1
   8  11   9 255.623 21.0865  -2
  -8  11  12 255.623 21.0865   1
   7  11   9 152.569 5.96263  -2
  -7  11  12 152.569 5.96263   1
   6  11   9 154.059 85.2281  -2
  -6  11  12 154.059 85.2281   1
   5  11  10 35.6176 3.14148  -2
  -5  11  12 35.6176 3.14148   1
   4  11  10 6.86677 5.32360  -2
  -4  11  12 6.86677 5.32360   1
   3  11  11 123.587 5.82350  -2
  -3  11  12 123.587 5.82350   1
   2  11  11 440.500 13.7021  -2
  -2  11  12 440.500 13.7021   1
   1  11  12 231.821 14.2676  -2
  -1  11  12 231.821 14.2676   1
  -1  11  12 235.793 45.2497   1
  -1  11  12 195.045 49.3489   2
   0  11  12 2.23514 1.81995  -2
   0  11  12 2.23514 1.81995   1
   1  11  12 80.7831 25.7236   2
  -1  11  12 345.462 19.4144  -2
   1  11  12 345.462 19.4144   1
   1  11  12 81.6005 30.7219   1
  -2  11  13 323.388 12.0901  -2
   2  11  12 323.388 12.0901   1
  -3  11  13 169.308 8.07950  -2
   3  11  12 169.308 8.07950   1
  -4  11  14 6.50590 11.6396  -2
   4  11  12 6.50590 11.6396   1
  -5  11  14 13.0203 3.53469  -2
   5  11  12 13.0203 3.53469   1
   6  11  12 101.849 15.8733   1
  -6  11  14 110.612 20.6857  -2
   6  11  12 110.612 20.6857   1
  -7  11  15 37.2223 3.87015  -2
   7  11  12 37.2223 3.87015   1
  -8  11  15 15.3095 6.38645  -2
   8  11  12 15.3095 6.38645   1
  -9  11  16 -0.8403 6.29603  -2
   9  11  12 -0.8403 6.29603   1
  10  12   8 4.34071 7.30673  -2
 -10  12  12 4.34071 7.30673   1
   9  12   8 20.6666 3.98308  -2
  -9  12  12 20.6666 3.98308   1
   8  12   9 19.4293 8.15617  -2
  -8  12  12 19.4293 8.15617   1
   7  12   9 5.26346 2.92097  -2
  -7  12  12 5.26346 2.92097   1
   5  12  10 33.5263 4.36363  -2
  -5  12  12 33.5263 4.36363   1
   4  12  10 78.5458 7.04834  -2
  -4  12  12 78.5458 7.04834   1
   3  12  11 11.9220 4.29885  -2
  -3  12  12 11.9220 4.29885   1
   2  12  11 15.9912 2.96526  -2
  -2  12  12 15.9912 2.96526   1
  -1  12  12 92.3166 24.1516   1
  -1  12  12 86.6795 30.1568   2
   1  12  12 81.4986 15.1553  -2
  -1  12  12 81.4986 15.1553   1
   0  12  12 2.89181 2.03757  -2
   0  12  12 2.89181 2.03757   1
   1  12  12 7.33852 16.5939   2
   1  12  12 -6.1152 19.0924   1
  -1  12  12 112.099 12.6899  -2
   1  12  12 112.099 12.6899   1
  -2  12  13 69.0083 6.91888  -2
   2  12  12 69.0083 6.91888   1
  -3  12  13 74.6969 8.10862  -2
   3  12  12 74.6969 8.10862   1
  -4  12  14 71.6019 6.57157  -2
   4  12  12 71.6019 6.57157   1
  -5  12  14 40.9296 3.95707  -2
   5  12  12 40.9296 3.95707   1
  -6  12  15 92.6575 18.1061  -2
   6  12  12 92.6575 18.1061   1
  -6  12  14 8.30875 16.7330  -2
   6  12  12 8.30875 16.7330   1
  -7  12  15 5.67083 3.19306  -2
   7  12  12 5.67083 3.19306   1
  -8  12  15 -13.125 7.49782  -2
   8  12  12 -13.125 7.49782   1
   9  12  12 -0.9909 3.57111   2
   9  12  12 10.5953 6.19001   1
  -9  12  16 -1.3324 5.83108  -2
   9  12  12 -1.3324 5.83108   1
   9  13   8 1.08206 5.56042  -2
  -9  13  12 1.08206 5.56042   1
   8  13   9 7.30345 9.08554  -2
  -8  13  12 7.30345 9.08554   1
   7  13   9 23.6032 4.07869  -2
  -7  13  12 23.6032 4.07869   1
   6  13  10 33.5660 14.8855  -2
  -6  13  12 33.5660 14.8855   1
   5  13  10 15.0307 3.16175  -2
  -5  13  12 15.0307 3.16175   1
   4  13  10 1.50510 4.01832  -2
  -4  13  12 1.50510 4.01832   1
   3  13  11 9.02520 3.90920  -2
  -3  13  12 9.02520 3.90920   1
   2  13  11 33.4353 5.84068  -2
  -2  13  12 33.4353 5.84068   1
   1  13  12 23.1342 14.9021  -2
  -1  13  12 23.1342 14.9021   1
   0  13  12 64.1942 3.99848  -2
   0  13  12 64.1942 3.99848   1
  -1  13  12 5.61790 13.0909  -2
   1  13  12 5.61790 13.0909   1
  -2  13  13 38.3139 5.50694  -2
   2  13  12 38.3139 5.50694   1
  -3  13  13 43.6718 5.55260  -2
   3  13  12 43.6718 5.55260   1
  -4  13  14 161.643 10.2530  -2
   4  13  12 161.643 10.2530   1
  -5  13  14 10.3996 3.71330  -2
   5  13  12 10.3996 3.71330   1
  -6  13  14 105.404 22.6212  -2
   6  13  12 105.404 22.6212   1
  -7  13  15 17.6947 7.74977  -2
   7  13  12 17.6947 7.74977   1
  -8  13  15 35.5933 17.1247  -2
   8  13  12 35.5933 17.1247   1
   8  14   9 69.7111 15.8562  -2
  -8  14  12 69.7111 15.8562   1
   7  14   9 7.21227 2.77032  -2
  -7  14  12 7.21227 2.77032   1
   5  14  10 2.07526 3.18570  -2
  -5  14  12 2.07526 3.18570   1
   4  14  10 278.659 12.6355  -2
  -4  14  12 278.659 12.6355   1
   3  14  11 19.4988 4.82101  -2
  -3  14  12 19.4988 4.82101   1
   2  14  11 16.1583 4.32804  -2
  -2  14  12 16.1583 4.32804   1
   1  14  12 10.0846 9.10180  -2
  -1  14  12 10.0846 9.10180   1
   0  14  12 196.098 8.70115  -2
   0  14  12 196.098 8.70115   1
  -1  14  12 17.4782 8.44728  -2
   1  14  12 17.4782 8.44728   1
  -2  14  13 68.4253 5.79399  -2
   2  14  12 68.4253 5.79399   1
  -3  14  13 41.1819 5.19163  -2
   3  14  12 41.1819 5.19163   1
  -4  14  14 36.9917 6.71563  -2
   4  14  12 36.9917 6.71563   1
  -5  14  14 21.0443 4.08566  -2
   5  14  12 21.0443 4.08566   1
   5  15  10 15.2581 4.59811  -2
  -5  15  12 15.2581 4.59811   1
   4  15  10 39.5332 6.16276  -2
  -4  15  12 39.5332 6.16276   1
   3  15  11 5.13713 5.41064  -2
  -3  15  12 5.13713 5.41064   1
   2  15  11 5.07460 4.29877  -2
  -2  15  12 5.07460 4.29877   1
   1  15  12 16.5500 8.64920  -2
  -1  15  12 16.5500 8.64920   1
   0  15  12 10.2210 3.13256  -2
   0  15  12 10.2210 3.13256   1
  -1  15  12 -7.8339 9.42689  -2
   1  15  12 -7.8339 9.42689   1
  -2  15  13 1.72542 4.27777  -2
   2  15  12 1.72542 4.27777   1
  -3  15  13 13.4568 6.32102  -2
   3  15  12 13.4568 6.32102   1
  -5  15  14 5.33769 7.20808  -2
   5  15  12 5.33769 7.20808   1
   4  16  10 17.0511 6.70186  -2
  -4  16  12 17.0511 6.70186   1
   3  16  11 15.4954 12.7203  -2
  -3  16  12 15.4954 12.7203   1
   2  16  11 41.3535 7.12208  -2
  -2  16  12 41.3535 7.12208   1
   1  16  12 49.4465 17.9006  -2
  -1  16  12 49.4465 17.9006   1
   0  16  12 48.0072 5.68326  -2
   0  16  12 48.0072 5.68326   1
  -1  16  12 47.8580 11.4272  -2
   1  16  12 47.8580 11.4272   1
  -2  16  13 85.1934 9.28018  -2
   2  16  12 85.1934 9.28018   1
 -15   0  13 7.51068 4.69225   2
  14   0   7 5.84174 6.37151  -2
 -14   0  13 5.84174 6.37151   1
  12   0   8 307.482 21.7727  -2
 -12   0  13 307.482 21.7727   1
  11   0   8 103.833 14.3004  -2
 -11   0  13 103.833 14.3004   1
  10   0   9 7.23278 5.78298  -2
 -10   0  13 7.23278 5.78298   1
   9   0   9 308.042 21.5003  -2
  -9   0  13 308.042 21.5003   1
   8   0  10 488.978 31.1318  -2
  -8   0  13 488.978 31.1318   1
   7   0  10 216.822 12.1833  -2
  -7   0  13 216.822 12.1833   1
   6   0  10 145.317 10.4391  -2
  -6   0  13 145.317 10.4391   1
  -6   0  13 0.05756 3.07470   1
   5   0  11 75.5874 5.07482  -2
  -5   0  13 75.5874 5.07482   1
   4   0  11 13.6773 2.43678  -2
  -4   0  13 13.6773 2.43678   1
   3   0  12 106.435 6.08068  -2
  -3   0  13 106.435 6.08068   1
   2   0  12 498.868 18.2061  -2
  -2   0  13 498.868 18.2061   1
   1   0  13 165.790 11.3616  -2
  -1   0  13 165.790 11.3616   1
   0   0  13 3.72723 1.54881  -2
   0   0  13 3.72723 1.54881   1
  -1   0  13 190.465 10.6286  -2
   1   0  13 190.465 10.6286   1
  -2   0  14 4.26269 3.04491  -2
   2   0  13 4.26269 3.04491   1
  -3   0  14 7.64685 3.76491  -2
   3   0  13 7.64685 3.76491   1
  -4   0  15 5.87121 4.01486  -2
   4   0  13 5.87121 4.01486   1
  -5   0  15 229.417 11.3459  -2
   5   0  13 229.417 11.3459   1
  -6   0  16 131.484 59.8111  -2
   6   0  13 131.484 59.8111   1
  -7   0  16 111.850 6.42702  -2
   7   0  13 111.850 6.42702   1
  -8   0  16 144.751 9.94428  -2
   8   0  13 144.751 9.94428   1
  -9   0  17 192.753 9.53495  -2
   9   0  13 192.753 9.53495   1
 -10   0  17 6.40197 5.37391  -2
  10   0  13 6.40197 5.37391   1
 -11   0  18 -1.2127 6.89096  -2
  11   0  13 -1.2127 6.89096   1
 -12   0  18 56.0224 6.59547  -2
  12   0  13 56.0224 6.59547   1
 -15   1  13 6.84964 3.33931   2
  14   1   7 26.8648 5.48313  -2
 -14   1  13 26.8648 5.48313   1
  12   1   8 9.22534 3.43730  -2
 -12   1  13 9.22534 3.43730   1
  11   1   8 124.165 8.41844  -2
 -11   1  13 124.165 8.41844   1
  10   1   9 212.255 9.49075  -2
 -10   1  13 212.255 9.49075   1
   9   1   9 5.24725 3.98307  -2
  -9   1  13 5.24725 3.98307   1
   8   1  10 238.017 10.1099  -2
  -8   1  13 238.017 10.1099   1
   7   1  10 298.637 8.89317  -2
  -7   1  13 298.637 8.89317   1
   6   1  10 129.823 9.09288  -2
  -6   1  13 129.823 9.09288   1
  -6   1  13 169.751 11.2171   1
   5   1  11 167.090 4.69630  -2
  -5   1  13 167.090 4.69630   1
   4   1  11 517.088 14.9795  -2
  -4   1  13 517.088 14.9795   1
   3   1  12 629.977 17.2968  -2
  -3   1  13 629.977 17.2968   1
   2   1  12 786.151 19.9560  -2
  -2   1  13 786.151 19.9560   1
   1   1  13 963.422 32.9530  -2
  -1   1  13 963.422 32.9530   1
  -1   1  13 732.811 112.339   1
   0   1  13 16.3373 1.45809  -2
   0   1  13 16.3373 1.45809   1
  -1   1  13 1180.60 30.6541  -2
   1   1  13 1180.60 30.6541   1
   1   1  13 82.1073 31.5156   2
  -2   1  14 1027.05 27.0751  -2
   2   1  13 1027.05 27.0751   1
  -3   1  14 360.751 10.6023  -2
   3   1  13 360.751 10.6023   1
  -4   1  15 123.315 5.85379  -2
   4   1  13 123.315 5.85379   1
   4   1  13 16.3611 6.99124   1
  -5   1  15 370.187 10.7776  -2
   5   1  13 370.187 10.7776   1
  -6   1  16 282.244 18.4268  -2
   6   1  13 282.244 18.4268   1
  -7   1  16 31.5704 2.89929  -2
   7   1  13 31.5704 2.89929   1
  -8   1  16 140.069 6.15522  -2
   8   1  13 140.069 6.15522   1
  -9   1  17 33.2001 3.54635  -2
   9   1  13 33.2001 3.54635   1
 -10   1  17 8.37103 3.39366  -2
  10   1  13 8.37103 3.39366   1
 -11   1  18 57.0869 5.84025  -2
  11   1  13 57.0869 5.84025   1
 -12   1  18 90.4167 5.99334  -2
  12   1  13 90.4167 5.99334   1
 -13   1  19 36.1206 17.0038  -2
 -13   1  18 36.1206 17.0038  -2
  13   1  13 36.1206 17.0038   1
  14   2   7 8.61352 4.47472  -2
 -14   2  13 8.61352 4.47472   1
  12   2   8 59.5479 4.09886  -2
 -12   2  13 59.5479 4.09886   1
  11   2   8 47.3406 4.70751  -2
 -11   2  13 47.3406 4.70751   1
  10   2   9 40.0175 4.58459  -2
 -10   2  13 40.0175 4.58459   1
   9   2   9 353.940 11.3417  -2
  -9   2  13 353.940 11.3417   1
   8   2  10 114.252 6.04386  -2
  -8   2  13 114.252 6.04386   1
   7   2  10 10.8568 1.96679  -2
  -7   2  13 10.8568 1.96679   1
   6   2  10 233.166 19.4073  -2
  -6   2  13 233.166 19.4073   1
  -6   2  13 3.58509 2.41584   1
   5   2  11 581.845 14.8936  -2
  -5   2  13 581.845 14.8936   1
   4   2  11 353.507 9.32454  -2
  -4   2  13 353.507 9.32454   1
   3   2  12 30.3660 3.01263  -2
  -3   2  13 30.3660 3.01263   1
   2   2  12 139.295 5.35091  -2
  -2   2  13 139.295 5.35091   1
   1   2  13 852.946 33.6958  -2
  -1   2  13 852.946 33.6958   1
  -1   2  13 98.5341 34.4085   1
   1   2  13 1433.35 118.368  -2
   1   2  12 1433.35 118.368  -2
  -1   2  13 1433.35 118.368   1
   0   2  13 1699.38 41.3197  -2
   0   2  13 1699.38 41.3197   1
  -1   2  13 769.482 21.6277  -2
   1   2  13 769.482 21.6277   1
   1   2  13 789.195 120.356   2
  -2   2  14 218.643 6.26065  -2
   2   2  13 218.643 6.26065   1
  -3   2  14 423.885 12.9789  -2
   3   2  13 423.885 12.9789   1
  -4   2  15 567.849 18.7622  -2
   4   2  13 567.849 18.7622   1
  -5   2  15 466.209 14.6190  -2
   5   2  13 466.209 14.6190   1
  -6   2  16 159.291 11.8052  -2
   6   2  13 159.291 11.8052   1
  -6   2  15 135.397 20.1589  -2
   6   2  13 135.397 20.1589   1
  -7   2  16 9.81273 2.02381  -2
   7   2  13 9.81273 2.02381   1
  -8   2  16 63.4058 5.22915  -2
   8   2  13 63.4058 5.22915   1
  -9   2  17 62.7730 4.48010  -2
   9   2  13 62.7730 4.48010   1
  -9   2  16 344.353 39.1452  -2
   9   2  13 344.353 39.1452   1
 -10   2  17 34.5275 7.06242  -2
  10   2  13 34.5275 7.06242   1
 -11   2  18 23.8391 5.90690  -2
  11   2  13 23.8391 5.90690   1
 -11   2  17 26.4417 12.9069  -2
  11   2  13 26.4417 12.9069   1
 -12   2  18 1.39601 3.60182  -2
  12   2  13 1.39601 3.60182   1
 -13   2  18 -0.2791 15.9587  -2
  13   2  13 -0.2791 15.9587   1
 -13   2  19 1.49311 12.8988  -2
  13   2  13 1.49311 12.8988   1
  14   3   7 69.2337 6.47850  -2
 -14   3  13 69.2337 6.47850   1
  13   3   7 4.52838 9.80012  -2
 -13   3  13 4.52838 9.80012   1
  12   3   8 14.6929 3.20564  -2
 -12   3  13 14.6929 3.20564   1
  11   3   8 23.9304 4.24736  -2
 -11   3  13 23.9304 4.24736   1
  10   3   9 132.447 6.74098  -2
 -10   3  13 132.447 6.74098   1
   9   3   9 19.8055 3.08509  -2
  -9   3  13 19.8055 3.08509   1
   8   3  10 119.486 7.23802  -2
  -8   3  13 119.486 7.23802   1
   7   3  10 125.280 5.54081  -2
  -7   3  13 125.280 5.54081   1
   6   3  10 53.3042 5.86576  -2
  -6   3  13 53.3042 5.86576   1
  -6   3  13 31.1155 4.74085   1
   5   3  11 79.8535 2.96642  -2
  -5   3  13 79.8535 2.96642   1
   4   3  11 374.388 11.9883  -2
  -4   3  13 374.388 11.9883   1
   3   3  12 267.758 8.61536  -2
  -3   3  13 267.758 8.61536   1
   2   3  12 238.651 7.66124  -2
  -2   3  13 238.651 7.66124   1
   1   3  13 28.2653 3.38955  -2
  -1   3  13 28.2653 3.38955   1
  -1   3  13 9.20955 14.2868   1
   0   3  13 42.9043 2.53886  -2
   0   3  13 42.9043 2.53886   1
  -1   3  13 35.2599 2.32940  -2
   1   3  13 35.2599 2.32940   1
   1   3  13 -0.2221 15.7758   2
  -2   3  14 267.458 7.97120  -2
   2   3  13 267.458 7.97120   1
  -3   3  14 381.913 11.4529  -2
   3   3  13 381.913 11.4529   1
  -4   3  15 106.283 6.40560  -2
   4   3  13 106.283 6.40560   1
  -5   3  15 4.33933 3.34216  -2
   5   3  13 4.33933 3.34216   1
  -6   3  15 131.702 14.2764  -2
   6   3  13 131.702 14.2764   1
  -6   3  16 54.1212 8.56736  -2
   6   3  13 54.1212 8.56736   1
   6   3  13 28.9107 7.09660   1
   6   3  13 46.3555 5.34340   2
  -7   3  16 136.375 5.70228  -2
   7   3  13 136.375 5.70228   1
  -8   3  16 46.0960 4.73288  -2
   8   3  13 46.0960 4.73288   1
  -9   3  17 108.983 5.98281  -2
   9   3  13 108.983 5.98281   1
 -10   3  17 58.9584 5.20465  -2
  10   3  13 58.9584 5.20465   1
  11   3  13 19.3723 11.2519   1
 -11   3  18 50.9933 9.08232  -2
  11   3  13 50.9933 9.08232   1
 -12   3  18 15.4557 4.07938  -2
  12   3  13 15.4557 4.07938   1
 -13   3  18 55.1141 17.0648  -2
  13   3  13 55.1141 17.0648   1
  14   4   7 1.90341 4.52300  -2
 -14   4  13 1.90341 4.52300   1
 -13   4  13 10.0236 7.60622   2
  12   4   8 141.308 7.40968  -2
 -12   4  13 141.308 7.40968   1
  11   4   8 64.5825 6.17386  -2
 -11   4  13 64.5825 6.17386   1
  10   4   9 109.362 5.22985  -2
 -10   4  13 109.362 5.22985   1
   9   4   9 75.4072 4.36301  -2
  -9   4  13 75.4072 4.36301   1
   8   4  10 410.030 15.9657  -2
  -8   4  13 410.030 15.9657   1
   7   4  10 289.749 9.59585  -2
  -7   4  13 289.749 9.59585   1
   6   4  10 50.9381 7.33135  -2
  -6   4  13 50.9381 7.33135   1
  -6   4  13 30.7419 4.69855   1
   5   4  11 252.999 6.96218  -2
  -5   4  13 252.999 6.96218   1
   4   4  11 36.4723 3.46034  -2
  -4   4  13 36.4723 3.46034   1
   3   4  12 73.7140 4.86887  -2
  -3   4  13 73.7140 4.86887   1
   2   4  12 51.3074 2.93408  -2
  -2   4  13 51.3074 2.93408   1
   1   4  13 109.538 6.37965  -2
  -1   4  13 109.538 6.37965   1
  -1   4  13 89.5915 37.7113   1
   0   4  13 27.1625 2.08414  -2
   0   4  13 27.1625 2.08414   1
  -1   4  13 108.690 5.13300  -2
   1   4  13 108.690 5.13300   1
   1   4  13 31.8113 31.3625   2
  -2   4  14 118.666 5.51180  -2
   2   4  13 118.666 5.51180   1
  -3   4  14 72.1806 4.28776  -2
   3   4  13 72.1806 4.28776   1
  -4   4  15 288.210 10.7472  -2
   4   4  13 288.210 10.7472   1
   4   4  13 265.573 28.4521   1
  -5   4  15 155.418 5.38548  -2
   5   4  13 155.418 5.38548   1
  -6   4  15 318.254 22.4444  -2
   6   4  13 318.254 22.4444   1
   6   4  13 294.691 16.4673   2
  -6   4  16 411.294 31.3368  -2
   6   4  13 411.294 31.3368   1
  -7   4  16 27.4902 2.84996  -2
   7   4  13 27.4902 2.84996   1
  -8   4  16 104.856 5.70884  -2
   8   4  13 104.856 5.70884   1
  -9   4  17 142.387 6.79387  -2
   9   4  13 142.387 6.79387   1
 -10   4  17 99.7915 5.28970  -2
  10   4  13 99.7915 5.28970   1
 -11   4  17 75.4280 15.2480  -2
  11   4  13 75.4280 15.2480   1
 -11   4  18 34.8943 5.77387  -2
  11   4  13 34.8943 5.77387   1
 -12   4  18 12.9841 4.36610  -2
  12   4  13 12.9841 4.36610   1
  14   5   7 10.9133 5.53704  -2
 -14   5  13 10.9133 5.53704   1
 -13   5  13 59.4067 13.1022   2
  12   5   8 117.256 6.13346  -2
 -12   5  13 117.256 6.13346   1
  11   5   8 47.0383 4.79817  -2
 -11   5  13 47.0383 4.79817   1
  10   5   9 66.7957 4.57811  -2
 -10   5  13 66.7957 4.57811   1
   9   5   9 67.9196 4.81715  -2
  -9   5  13 67.9196 4.81715   1
   8   5  10 123.929 6.19489  -2
  -8   5  13 123.929 6.19489   1
   7   5  10 147.254 5.67113  -2
  -7   5  13 147.254 5.67113   1
  -6   5  13 319.868 26.0088   1
  -6   5  13 397.975 36.5406   2
   6   5  10 227.210 22.9145  -2
  -6   5  13 227.210 22.9145   1
   5   5  11 13.1496 1.18982  -2
  -5   5  13 13.1496 1.18982   1
   4   5  11 15.4228 2.99208  -2
  -4   5  13 15.4228 2.99208   1
   3   5  12 109.521 4.80934  -2
  -3   5  13 109.521 4.80934   1
   2   5  12 311.398 12.8354  -2
  -2   5  13 311.398 12.8354   1
  -1   5  13 95.6226 32.8232   2
   1   5  13 46.8748 10.8364  -2
  -1   5  13 46.8748 10.8364   1
   0   5  13 17.2153 2.31325  -2
   0   5  13 17.2153 2.31325   1
  -1   5  13 65.9393 8.03474  -2
   1   5  13 65.9393 8.03474   1
  -2   5  14 423.543 15.1433  -2
   2   5  13 423.543 15.1433   1
  -3   5  14 321.142 13.2734  -2
   3   5  13 321.142 13.2734   1
  -4   5  15 70.8905 4.86463  -2
   4   5  13 70.8905 4.86463   1
  -4   5  15 93.3505 13.1200  -2
  -4   5  14 93.3505 13.1200  -2
   4   5  13 93.3505 13.1200   1
  -5   5  15 11.1997 2.60682  -2
   5   5  13 11.1997 2.60682   1
  -6   5  16 259.896 25.3096  -2
   6   5  13 259.896 25.3096   1
  -6   5  15 289.838 33.7743  -2
   6   5  13 289.838 33.7743   1
  -7   5  16 213.820 7.86238  -2
   7   5  13 213.820 7.86238   1
  -8   5  16 85.8093 6.08589  -2
   8   5  13 85.8093 6.08589   1
  -9   5  17 22.0587 4.61365  -2
   9   5  13 22.0587 4.61365   1
 -10   5  17 60.0988 4.90531  -2
  10   5  13 60.0988 4.90531   1
 -11   5  17 97.7835 18.4134  -2
  11   5  13 97.7835 18.4134   1
 -11   5  18 31.2581 6.20937  -2
  11   5  13 31.2581 6.20937   1
 -12   5  18 38.9379 5.02970  -2
  12   5  13 38.9379 5.02970   1
  14   6   7 14.7314 5.84797  -2
 -14   6  13 14.7314 5.84797   1
 -13   6  13 1.17527 7.67992   2
  12   6   8 19.3664 3.74545  -2
 -12   6  13 19.3664 3.74545   1
  11   6   8 71.7350 6.08219  -2
 -11   6  13 71.7350 6.08219   1
  10   6   9 54.1680 5.93003  -2
 -10   6  13 54.1680 5.93003   1
   9   6   9 53.1875 4.72151  -2
  -9   6  13 53.1875 4.72151   1
   8   6  10 14.4865 3.86388  -2
  -8   6  13 14.4865 3.86388   1
   7   6  10 67.1189 3.34816  -2
  -7   6  13 67.1189 3.34816   1
   6   6  10 4.30913 9.28493  -2
  -6   6  13 4.30913 9.28493   1
  -6   6  13 49.6400 10.4810   2
  -6   6  13 29.6292 4.33495   1
   5   6  11 267.037 8.71953  -2
  -5   6  13 267.037 8.71953   1
   4   6  11 108.056 5.03946  -2
  -4   6  13 108.056 5.03946   1
   3   6  12 190.933 8.79202  -2
  -3   6  13 190.933 8.79202   1
   2   6  12 61.4724 6.82892  -2
  -2   6  13 61.4724 6.82892   1
   1   6  13 33.5041 19.0682  -2
  -1   6  13 33.5041 19.0682   1
  -1   6  13 35.5819 20.6952   2
   0   6  13 121.923 6.10379  -2
   0   6  13 121.923 6.10379   1
  -1   6  13 55.5784 3.74345  -2
   1   6  13 55.5784 3.74345   1
   1   6  13 28.9667 19.7830   1
  -2   6  14 92.2119 4.63931  -2
   2   6  13 92.2119 4.63931   1
  -3   6  14 47.2380 3.50400  -2
   3   6  13 47.2380 3.50400   1
  -4   6  15 254.693 9.31827  -2
   4   6  13 254.693 9.31827   1
  -5   6  15 65.6887 4.25826  -2
   5   6  13 65.6887 4.25826   1
  -6   6  16 -8.3379 11.3661  -2
   6   6  13 -8.3379 11.3661   1
  -7   6  16 1.03974 2.78316  -2
   7   6  13 1.03974 2.78316   1
  -8   6  16 73.0712 5.93138  -2
   8   6  13 73.0712 5.93138   1
  -9   6  17 58.6992 5.51772  -2
   9   6  13 58.6992 5.51772   1
  -9   6  16 137.975 23.3299  -2
   9   6  13 137.975 23.3299   1
 -10   6  17 -2.8831 4.35593  -2
  10   6  13 -2.8831 4.35593   1
 -11   6  18 -2.9054 7.18544  -2
  11   6  13 -2.9054 7.18544   1
 -11   6  17 -8.0150 11.1243  -2
  11   6  13 -8.0150 11.1243   1
  11   6  13 3.22398 6.00062   1
 -12   6  18 19.4762 5.24266  -2
  12   6  13 19.4762 5.24266   1
  12   7   8 16.9881 3.93176  -2
 -12   7  13 16.9881 3.93176   1
  11   7   8 148.656 9.05639  -2
 -11   7  13 148.656 9.05639   1
  10   7   9 149.349 8.14944  -2
 -10   7  13 149.349 8.14944   1
   9   7   9 101.862 5.62665  -2
  -9   7  13 101.862 5.62665   1
   8   7  10 17.6567 3.63837  -2
  -8   7  13 17.6567 3.63837   1
   7   7  10 91.3162 4.49292  -2
  -7   7  13 91.3162 4.49292   1
  -6   7  13 35.6297 9.28947   2
  -6   7  13 40.7569 5.00653   1
   6   7  10 65.4323 11.5871  -2
  -6   7  13 65.4323 11.5871   1
   5   7  11 190.796 8.43490  -2
  -5   7  13 190.796 8.43490   1
  -5   7  13 200.862 15.8611   1
   4   7  11 70.6305 4.89786  -2
  -4   7  13 70.6305 4.89786   1
   3   7  12 132.618 6.31782  -2
  -3   7  13 132.618 6.31782   1
   2   7  12 30.8853 3.65715  -2
  -2   7  13 30.8853 3.65715   1
   1   7  13 104.491 9.63587  -2
  -1   7  13 104.491 9.63587   1
  -1   7  13 41.5000 24.7865   2
   0   7  13 209.305 7.00182  -2
   0   7  13 209.305 7.00182   1
   1   7  13 48.8087 22.5614   1
  -1   7  13 120.876 7.06315  -2
   1   7  13 120.876 7.06315   1
  -2   7  14 298.283 10.2279  -2
   2   7  13 298.283 10.2279   1
  -3   7  14 140.543 5.91435  -2
   3   7  13 140.543 5.91435   1
  -4   7  15 127.500 7.09988  -2
   4   7  13 127.500 7.09988   1
  -5   7  15 230.752 8.73910  -2
   5   7  13 230.752 8.73910   1
  -6   7  16 29.6060 16.1203  -2
   6   7  13 29.6060 16.1203   1
  -6   7  15 76.6102 17.7158  -2
   6   7  13 76.6102 17.7158   1
  -7   7  16 227.497 9.45295  -2
   7   7  13 227.497 9.45295   1
  -8   7  16 95.4890 7.27696  -2
   8   7  13 95.4890 7.27696   1
  -9   7  17 116.898 7.41701  -2
   9   7  13 116.898 7.41701   1
   9   7  13 85.4371 17.2818   1
 -10   7  17 54.7834 5.40158  -2
  10   7  13 54.7834 5.40158   1
 -11   7  17 76.5708 16.6398  -2
  11   7  13 76.5708 16.6398   1
 -11   7  18 96.8725 9.59322  -2
  11   7  13 96.8725 9.59322   1
  12   8   8 5.78036 3.43431  -2
 -12   8  13 5.78036 3.43431   1
  11   8   8 6.84489 5.03703  -2
 -11   8  13 6.84489 5.03703   1
  10   8   9 10.1126 4.16460  -2
 -10   8  13 10.1126 4.16460   1
   9   8   9 506.717 16.4531  -2
  -9   8  13 506.717 16.4531   1
   8   8  10 83.8950 6.47496  -2
  -8   8  13 83.8950 6.47496   1
   7   8  10 0.53249 2.01195  -2
  -7   8  13 0.53249 2.01195   1
  -6   8  13 54.1013 6.08376   1
   6   8  10 411.516 27.2730  -2
  -6   8  13 411.516 27.2730   1
  -6   8  13 49.5335 10.6641   2
   5   8  11 713.405 19.3942  -2
  -5   8  13 713.405 19.3942   1
   4   8  11 150.394 6.33954  -2
  -4   8  13 150.394 6.33954   1
   3   8  12 108.160 5.06488  -2
  -3   8  13 108.160 5.06488   1
   2   8  12 139.113 5.82698  -2
  -2   8  13 139.113 5.82698   1
   1   8  13 201.050 12.8555  -2
  -1   8  13 201.050 12.8555   1
   0   8  13 144.744 5.63957  -2
   0   8  13 144.744 5.63957   1
  -1   8  13 195.650 12.1678  -2
   1   8  13 195.650 12.1678   1
  -2   8  14 21.8346 4.24918  -2
   2   8  13 21.8346 4.24918   1
  -3   8  14 50.8147 3.51897  -2
   3   8  13 50.8147 3.51897   1
  -4   8  15 138.157 7.34357  -2
   4   8  13 138.157 7.34357   1
  -5   8  15 34.7000 3.21303  -2
   5   8  13 34.7000 3.21303   1
  -6   8  15 24.0038 14.3522  -2
   6   8  13 24.0038 14.3522   1
  -6   8  16 12.1619 11.8816  -2
   6   8  13 12.1619 11.8816   1
  -7   8  16 43.6888 6.66430  -2
   7   8  13 43.6888 6.66430   1
  -8   8  16 35.9772 5.61369  -2
   8   8  13 35.9772 5.61369   1
  -9   8  17 10.0075 4.66352  -2
   9   8  13 10.0075 4.66352   1
 -10   8  17 90.2080 6.22778  -2
  10   8  13 90.2080 6.22778   1
 -11   8  18 49.5622 10.7525  -2
  11   8  13 49.5622 10.7525   1
  12   9   8 11.7668 4.10034  -2
 -12   9  13 11.7668 4.10034   1
  11   9   8 6.70739 5.83309  -2
 -11   9  13 6.70739 5.83309   1
  10   9   9 9.67516 3.77561  -2
 -10   9  13 9.67516 3.77561   1
   9   9   9 5.65368 3.76684  -2
  -9   9  13 5.65368 3.76684   1
   8   9  10 36.0279 5.29586  -2
  -8   9  13 36.0279 5.29586   1
   7   9  10 6.75532 2.37588  -2
  -7   9  13 6.75532 2.37588   1
  -6   9  13 17.8533 8.27875   2
   6   9  10 2.65604 11.9529  -2
  -6   9  13 2.65604 11.9529   1
   5   9  11 124.986 5.07296  -2
  -5   9  13 124.986 5.07296   1
   4   9  11 109.236 5.74867  -2
  -4   9  13 109.236 5.74867   1
   3   9  12 133.645 5.56549  -2
  -3   9  13 133.645 5.56549   1
   2   9  12 79.6547 4.69201  -2
  -2   9  13 79.6547 4.69201   1
   1   9  13 368.408 18.1580  -2
  -1   9  13 368.408 18.1580   1
   0   9  13 152.189 4.60061  -2
   0   9  13 152.189 4.60061   1
  -1   9  13 282.144 14.1274  -2
   1   9  13 282.144 14.1274   1
  -2   9  14 21.1649 3.21666  -2
   2   9  13 21.1649 3.21666   1
  -3   9  14 59.9810 4.58998  -2
   3   9  13 59.9810 4.58998   1
  -4   9  15 29.3450 4.39198  -2
   4   9  13 29.3450 4.39198   1
  -5   9  15 70.6128 4.50688  -2
   5   9  13 70.6128 4.50688   1
  -6   9  15 40.9757 8.52968  -2
   6   9  13 40.9757 8.52968   1
  -6   9  16 -11.861 68.4629  -2
   6   9  13 -11.861 68.4629   1
  -7   9  16 86.7806 5.40847  -2
   7   9  13 86.7806 5.40847   1
  -8   9  16 152.119 9.62393  -2
   8   9  13 152.119 9.62393   1
  -9   9  17 14.8765 4.99580  -2
   9   9  13 14.8765 4.99580   1
 -10   9  17 5.67572 4.72232  -2
  10   9  13 5.67572 4.72232   1
 -12  10  13 13.1602 6.62414   2
 -12  10  13 12.3758 7.50298   1
  11  10   8 29.7698 13.7061  -2
 -11  10  13 29.7698 13.7061   1
  10  10   9 4.12356 5.02687  -2
 -10  10  13 4.12356 5.02687   1
   9  10   9 8.90796 3.70209  -2
  -9  10  13 8.90796 3.70209   1
   8  10  10 36.8018 16.8532  -2
  -8  10  13 36.8018 16.8532   1
   7  10  10 56.6532 4.38413  -2
  -7  10  13 56.6532 4.38413   1
  -6  10  13 43.1627 18.2754   1
   5  10  11 13.8523 2.15267  -2
  -5  10  13 13.8523 2.15267   1
   4  10  11 66.2176 5.00095  -2
  -4  10  13 66.2176 5.00095   1
  -4  10  13 73.2471 6.48634   1
   3  10  12 212.775 8.82907  -2
  -3  10  13 212.775 8.82907   1
   2  10  12 289.319 11.1504  -2
  -2  10  13 289.319 11.1504   1
   1  10  13 33.9905 7.62503  -2
  -1  10  13 33.9905 7.62503   1
  -1  10  13 0.94174 1.12425   1
   0  10  13 73.2608 3.99621  -2
   0  10  13 73.2608 3.99621   1
  -1  10  13 12.8759 7.42752  -2
   1  10  13 12.8759 7.42752   1
  -2  10  14 129.189 6.18409  -2
   2  10  13 129.189 6.18409   1
  -3  10  14 240.566 10.2871  -2
   3  10  13 240.566 10.2871   1
  -4  10  15 58.2945 8.49706  -2
   4  10  13 58.2945 8.49706   1
  -5  10  15 65.4335 11.2439  -2
   5  10  13 65.4335 11.2439   1
  -6  10  15 198.376 26.6817  -2
   6  10  13 198.376 26.6817   1
  -7  10  16 128.515 6.22971  -2
   7  10  13 128.515 6.22971   1
  -8  10  16 74.5154 6.52658  -2
   8  10  13 74.5154 6.52658   1
  -9  10  17 52.3130 5.84409  -2
   9  10  13 52.3130 5.84409   1
 -10  10  17 39.4706 8.47598  -2
  10  10  13 39.4706 8.47598   1
  11  11   8 99.7546 18.1354  -2
 -11  11  13 99.7546 18.1354   1
  10  11   9 23.6912 5.46070  -2
 -10  11  13 23.6912 5.46070   1
   9  11   9 21.3112 3.98827  -2
  -9  11  13 21.3112 3.98827   1
   8  11  10 45.0803 11.6718  -2
  -8  11  13 45.0803 11.6718   1
   7  11  10 345.062 15.3886  -2
  -7  11  13 345.062 15.3886   1
   5  11  11 19.4986 3.79639  -2
  -5  11  13 19.4986 3.79639   1
   4  11  11 135.888 9.23935  -2
  -4  11  13 135.888 9.23935   1
   3  11  12 199.443 7.78864  -2
  -3  11  13 199.443 7.78864   1
   2  11  12 261.902 8.59973  -2
  -2  11  13 261.902 8.59973   1
   1  11  13 34.5703 9.27605  -2
  -1  11  13 34.5703 9.27605   1
  -1  11  13 3.76295 2.13529   1
   0  11  13 22.9942 3.45981  -2
   0  11  13 22.9942 3.45981   1
  -1  11  13 33.9016 9.97595  -2
   1  11  13 33.9016 9.97595   1
  -2  11  14 51.2774 5.28026  -2
   2  11  13 51.2774 5.28026   1
  -3  11  14 56.0936 10.0132  -2
   3  11  13 56.0936 10.0132   1
  -4  11  15 -11.225 6.69024  -2
   4  11  13 -11.225 6.69024   1
  -5  11  15 32.5186 3.95037  -2
   5  11  13 32.5186 3.95037   1
  -6  11  15 52.9211 17.0278  -2
   6  11  13 52.9211 17.0278   1
  -6  11  16 59.8386 21.1937  -2
  -6  11  15 59.8386 21.1937  -2
   6  11  13 59.8386 21.1937   1
  -7  11  16 37.6926 3.91710  -2
   7  11  13 37.6926 3.91710   1
  -8  11  16 4.60107 6.41836  -2
   8  11  13 4.60107 6.41836   1
  -9  11  17 3.31988 7.39366  -2
   9  11  13 3.31988 7.39366   1
  10  12   9 15.2356 7.94111  -2
 -10  12  13 15.2356 7.94111   1
   9  12   9 3.12321 3.72607  -2
  -9  12  13 3.12321 3.72607   1
   8  12  10 2.39042 9.59425  -2
  -8  12  13 2.39042 9.59425   1
   7  12  10 7.90954 3.16201  -2
  -7  12  13 7.90954 3.16201   1
   6  12  11 65.4063 16.4555  -2
  -6  12  13 65.4063 16.4555   1
   5  12  11 2.18312 3.56418  -2
  -5  12  13 2.18312 3.56418   1
   4  12  11 73.8839 7.10740  -2
  -4  12  13 73.8839 7.10740   1
   3  12  12 112.749 7.46380  -2
  -3  12  13 112.749 7.46380   1
   2  12  12 54.2323 6.43280  -2
  -2  12  13 54.2323 6.43280   1
   1  12  13 53.8421 24.0357  -2
  -1  12  13 53.8421 24.0357   1
   0  12  13 25.5350 3.52255  -2
   0  12  13 25.5350 3.52255   1
  -1  12  13 66.7438 55.7213  -2
   1  12  13 66.7438 55.7213   1
  -2  12  14 43.6872 5.02191  -2
   2  12  13 43.6872 5.02191   1
  -3  12  14 33.5423 5.39098  -2
   3  12  13 33.5423 5.39098   1
  -4  12  15 21.7628 6.10489  -2
   4  12  13 21.7628 6.10489   1
  -5  12  15 192.469 8.09273  -2
   5  12  13 192.469 8.09273   1
  -6  12  15 95.7950 21.5378  -2
   6  12  13 95.7950 21.5378   1
  -6  12  16 83.8890 19.2152  -2
   6  12  13 83.8890 19.2152   1
  -7  12  16 21.4781 3.44004  -2
   7  12  13 21.4781 3.44004   1
  -8  12  16 17.5059 14.4372  -2
   8  12  13 17.5059 14.4372   1
   9  13   9 13.4257 5.76642  -2
  -9  13  13 13.4257 5.76642   1
   8  13  10 24.7435 10.7445  -2
  -8  13  13 24.7435 10.7445   1
   7  13  10 23.2789 3.85280  -2
  -7  13  13 23.2789 3.85280   1
   6  13  11 40.7231 15.3127  -2
  -6  13  13 40.7231 15.3127   1
   5  13  11 122.587 5.95551  -2
  -5  13  13 122.587 5.95551   1
   4  13  11 36.1393 4.34325  -2
  -4  13  13 36.1393 4.34325   1
   3  13  12 48.5736 4.87004  -2
  -3  13  13 48.5736 4.87004   1
   2  13  12 41.9631 4.88872  -2
  -2  13  13 41.9631 4.88872   1
   1  13  13 124.679 13.9926  -2
  -1  13  13 124.679 13.9926   1
   0  13  13 24.4574 3.95464  -2
   0  13  13 24.4574 3.95464   1
  -1  13  13 151.843 14.8048  -2
   1  13  13 151.843 14.8048   1
  -2  13  14 5.74189 3.93885  -2
   2  13  13 5.74189 3.93885   1
  -3  13  14 8.14449 4.75625  -2
   3  13  13 8.14449 4.75625   1
  -4  13  15 23.0013 6.42457  -2
   4  13  13 23.0013 6.42457   1
  -5  13  15 144.714 7.44847  -2
   5  13  13 144.714 7.44847   1
  -6  13  15 44.4554 16.1588  -2
   6  13  13 44.4554 16.1588   1
   7  14  10 9.31432 3.90994  -2
  -7  14  13 9.31432 3.90994   1
   6  14  11 8.80192 13.7176  -2
  -6  14  13 8.80192 13.7176   1
   5  14  11 143.976 6.06338  -2
  -5  14  13 143.976 6.06338   1
   4  14  11 7.53382 4.47380  -2
  -4  14  13 7.53382 4.47380   1
   3  14  12 64.7924 5.61527  -2
  -3  14  13 64.7924 5.61527   1
   2  14  12 55.3140 4.96119  -2
  -2  14  13 55.3140 4.96119   1
   1  14  13 50.5643 10.5761  -2
  -1  14  13 50.5643 10.5761   1
  -1  14  13 25.4613 10.5301   1
   0  14  13 38.9012 4.14899  -2
   0  14  13 38.9012 4.14899   1
  -1  14  13 42.4563 11.8430  -2
   1  14  13 42.4563 11.8430   1
  -2  14  14 5.84047 4.25183  -2
   2  14  13 5.84047 4.25183   1
  -3  14  14 11.5397 5.23410  -2
   3  14  13 11.5397 5.23410   1
  -4  14  15 22.3102 7.32387  -2
   4  14  13 22.3102 7.32387   1
  -5  14  15 42.7057 6.28681  -2
   5  14  13 42.7057 6.28681   1
   6  14  13 0.76524 8.03134   1
   5  15  11 -2.9005 10.1256  -2
  -5  15  13 -2.9005 10.1256   1
   4  15  11 25.6277 7.89538  -2
  -4  15  13 25.6277 7.89538   1
   3  15  12 33.2656 4.77068  -2
  -3  15  13 33.2656 4.77068   1
   2  15  12 15.4385 4.07089  -2
  -2  15  13 15.4385 4.07089   1
   1  15  13 35.9455 9.13984  -2
  -1  15  13 35.9455 9.13984   1
   0  15  13 4.89687 3.05399  -2
   0  15  13 4.89687 3.05399   1
  -1  15  13 22.2846 10.1971  -2
   1  15  13 22.2846 10.1971   1
  -2  15  14 -0.1625 4.83532  -2
   2  15  13 -0.1625 4.83532   1
  -3  15  14 -2.8236 9.29200  -2
   3  15  13 -2.8236 9.29200   1
  -4  15  15 -6.8918 14.7603  -2
   4  15  13 -6.8918 14.7603   1
   2  16  12 74.1294 7.27751  -2
  -2  16  13 74.1294 7.27751   1
  -1  16  13 2.20082 6.69979   2
   1  16  13 15.1531 14.8649  -2
  -1  16  13 15.1531 14.8649   1
  -1  16  13 -9.2079 10.6614   1
   0  16  13 13.8307 4.11062  -2
   0  16  13 13.8307 4.11062   1
  14   0   8 55.6950 8.60940  -2
 -14   0  14 55.6950 8.60940   1
  12   0   9 54.3236 8.17737  -2
 -12   0  14 54.3236 8.17737   1
  11   0   9 115.180 15.3119  -2
 -11   0  14 115.180 15.3119   1
  10   0  10 -9.0005 5.38419  -2
 -10   0  14 -9.0005 5.38419   1
   9   0  10 -2.6743 6.90734  -2
  -9   0  14 -2.6743 6.90734   1
   8   0  11 6.16909 6.35885  -2
  -8   0  14 6.16909 6.35885   1
   7   0  11 294.041 17.0212  -2
  -7   0  14 294.041 17.0212   1
   6   0  11 91.9817 4.86773  -2
  -6   0  14 91.9817 4.86773   1
  -6   0  14 93.1705 10.2596   1
   5   0  12 -6.4698 3.07938  -2
  -5   0  14 -6.4698 3.07938   1
   4   0  12 173.064 9.97586  -2
  -4   0  14 173.064 9.97586   1
  -3   0  14 -0.1699 2.52276   1
   3   0  13 8.18697 2.91681  -2
  -3   0  14 8.18697 2.91681   1
   2   0  13 15.5105 2.97440  -2
  -2   0  14 15.5105 2.97440   1
   1   0  14 -4.7447 9.66275  -2
  -1   0  14 -4.7447 9.66275   1
   0   0  14 280.507 10.3001  -2
   0   0  14 280.507 10.3001   1
  -1   0  14 2.95111 6.14014  -2
   1   0  14 2.95111 6.14014   1
  -2   0  15 41.8732 3.68006  -2
   2   0  14 41.8732 3.68006   1
  -3   0  15 42.5739 4.58855  -2
   3   0  14 42.5739 4.58855   1
   4   0  14 258.362 26.9914   1
  -4   0  16 207.012 12.0156  -2
   4   0  14 207.012 12.0156   1
  -5   0  16 0.31118 3.62586  -2
   5   0  14 0.31118 3.62586   1
  -6   0  17 48.1296 9.67891  -2
   6   0  14 48.1296 9.67891   1
  -7   0  17 51.1840 6.91727  -2
   7   0  14 51.1840 6.91727   1
  -8   0  17 173.872 14.1339  -2
   8   0  14 173.872 14.1339   1
  -9   0  18 15.3707 4.50594  -2
   9   0  14 15.3707 4.50594   1
 -10   0  18 51.6502 6.28994  -2
  10   0  14 51.6502 6.28994   1
 -11   0  18 -3.1853 16.7497  -2
  11   0  14 -3.1853 16.7497   1
 -11   0  19 61.7471 8.15821  -2
  11   0  14 61.7471 8.15821   1
 -12   0  19 12.0925 4.96221  -2
  12   0  14 12.0925 4.96221   1
  14   1   8 10.4758 4.81249  -2
 -14   1  14 10.4758 4.81249   1
  12   1   9 56.3528 4.83981  -2
 -12   1  14 56.3528 4.83981   1
  11   1   9 74.1376 6.54977  -2
 -11   1  14 74.1376 6.54977   1
  10   1  10 22.2026 3.78057  -2
 -10   1  14 22.2026 3.78057   1
   9   1  10 170.489 9.18455  -2
  -9   1  14 170.489 9.18455   1
   8   1  11 94.8506 6.88969  -2
  -8   1  14 94.8506 6.88969   1
   7   1  11 313.745 10.5034  -2
  -7   1  14 313.745 10.5034   1
   6   1  11 622.011 74.1246  -2
  -6   1  14 622.011 74.1246   1
  -6   1  14 513.428 29.7727   1
   5   1  12 47.0051 2.72517  -2
  -5   1  14 47.0051 2.72517   1
   4   1  12 290.112 9.54787  -2
  -4   1  14 290.112 9.54787   1
   3   1  13 410.271 11.7513  -2
  -3   1  14 410.271 11.7513   1
   2   1  13 812.172 20.7155  -2
  -2   1  14 812.172 20.7155   1
   1   1  14 98.3335 5.85424  -2
  -1   1  14 98.3335 5.85424   1
   0   1  14 36.6956 1.94347  -2
   0   1  14 36.6956 1.94347   1
  -1   1  14 95.7990 4.37503  -2
   1   1  14 95.7990 4.37503   1
  -2   1  15 135.634 4.77421  -2
   2   1  14 135.634 4.77421   1
  -3   1  15 302.131 9.89946  -2
   3   1  14 302.131 9.89946   1
   4   1  14 6.83309 5.74890   1
  -4   1  16 12.9195 3.56206  -2
   4   1  14 12.9195 3.56206   1
  -5   1  16 135.620 6.47641  -2
   5   1  14 135.620 6.47641   1
   6   1  14 1.37273 6.19085   1
  -6   1  17 158.563 17.3971  -2
   6   1  14 158.563 17.3971   1
  -6   1  16 345.207 35.6579  -2
   6   1  14 345.207 35.6579   1
  -7   1  17 269.918 9.11859  -2
   7   1  14 269.918 9.11859   1
  -8   1  17 70.4275 6.15448  -2
   8   1  14 70.4275 6.15448   1
  -9   1  18 49.7646 5.46497  -2
   9   1  14 49.7646 5.46497   1
 -10   1  18 82.6353 5.65839  -2
  10   1  14 82.6353 5.65839   1
 -11   1  19 19.0361 5.02128  -2
  11   1  14 19.0361 5.02128   1
 -11   1  18 32.7480 18.0037  -2
  11   1  14 32.7480 18.0037   1
 -12   1  19 37.1684 4.23649  -2
  12   1  14 37.1684 4.23649   1
  14   2   8 68.8082 7.51597  -2
 -14   2  14 68.8082 7.51597   1
  12   2   9 2.85317 3.34212  -2
 -12   2  14 2.85317 3.34212   1
  11   2   9 57.0501 6.01063  -2
 -11   2  14 57.0501 6.01063   1
  10   2  10 113.688 6.67904  -2
 -10   2  14 113.688 6.67904   1
   9   2  10 268.620 8.59571  -2
  -9   2  14 268.620 8.59571   1
   8   2  11 15.8306 3.71510  -2
  -8   2  14 15.8306 3.71510   1
   7   2  11 89.7710 4.30781  -2
  -7   2  14 89.7710 4.30781   1
   6   2  11 451.460 27.5908  -2
  -6   2  14 451.460 27.5908   1
   5   2  12 1359.60 40.2862  -2
  -5   2  14 1359.60 40.2862   1
   4   2  12 614.618 18.0218  -2
  -4   2  14 614.618 18.0218   1
   3   2  13 393.188 14.9786  -2
  -3   2  14 393.188 14.9786   1
   2   2  13 236.200 7.41072  -2
  -2   2  14 236.200 7.41072   1
   1   2  14 628.259 33.4129  -2
  -1   2  14 628.259 33.4129   1
   0   2  14 1030.88 23.6996  -2
   0   2  14 1030.88 23.6996   1
  -1   2  14 573.766 18.8301  -2
   1   2  14 573.766 18.8301   1
  -2   2  15 84.7437 4.10263  -2
   2   2  14 84.7437 4.10263   1
  -3   2  15 226.806 9.09966  -2
   3   2  14 226.806 9.09966   1
  -4   2  16 275.136 10.5261  -2
   4   2  14 275.136 10.5261   1
  -5   2  16 147.483 6.38812  -2
   5   2  14 147.483 6.38812   1
  -6   2  17 -0.2694 12.4167  -2
   6   2  14 -0.2694 12.4167   1
  -6   2  16 16.7644 8.85573  -2
   6   2  14 16.7644 8.85573   1
  -7   2  17 12.0105 2.34750  -2
   7   2  14 12.0105 2.34750   1
  -8   2  17 27.0124 4.45164  -2
   8   2  14 27.0124 4.45164   1
  -9   2  18 39.8270 3.71506  -2
   9   2  14 39.8270 3.71506   1
 -10   2  18 6.16505 5.48255  -2
  10   2  14 6.16505 5.48255   1
 -11   2  19 11.0157 5.40504  -2
  11   2  14 11.0157 5.40504   1
 -12   2  19 0.04145 4.02625  -2
  12   2  14 0.04145 4.02625   1
  14   3   8 -0.8589 4.44963  -2
 -14   3  14 -0.8589 4.44963   1
  12   3   9 15.8637 3.94422  -2
 -12   3  14 15.8637 3.94422   1
  11   3   9 77.9280 6.76263  -2
 -11   3  14 77.9280 6.76263   1
  10   3  10 8.62441 2.89574  -2
 -10   3  14 8.62441 2.89574   1
   9   3  10 228.776 9.42595  -2
  -9   3  14 228.776 9.42595   1
   8   3  11 1.25489 4.09037  -2
  -8   3  14 1.25489 4.09037   1
   7   3  11 260.284 9.26170  -2
  -7   3  14 260.284 9.26170   1
   6   3  11 20.0581 9.28941  -2
  -6   3  14 20.0581 9.28941   1
  -6   3  14 33.9465 5.00376   1
   5   3  12 9.19602 1.44317  -2
  -5   3  14 9.19602 1.44317   1
   4   3  12 97.0451 6.05773  -2
  -4   3  14 97.0451 6.05773   1
   3   3  13 417.217 15.2895  -2
  -3   3  14 417.217 15.2895   1
   2   3  13 273.811 9.36936  -2
  -2   3  14 273.811 9.36936   1
   1   3  14 343.730 18.7046  -2
  -1   3  14 343.730 18.7046   1
   0   3  14 21.2632 2.07990  -2
   0   3  14 21.2632 2.07990   1
  -1   3  14 335.955 11.3575  -2
   1   3  14 335.955 11.3575   1
  -2   3  15 219.162 8.76442  -2
   2   3  14 219.162 8.76442   1
  -3   3  15 74.0797 5.60438  -2
   3   3  14 74.0797 5.60438   1
  -4   3  16 142.304 8.99760  -2
   4   3  14 142.304 8.99760   1
  -5   3  16 143.522 6.14422  -2
   5   3  14 143.522 6.14422   1
   6   3  14 45.6635 9.95828   1
  -6   3  17 117.271 17.9852  -2
   6   3  14 117.271 17.9852   1
  -6   3  16 56.7858 10.8619  -2
   6   3  14 56.7858 10.8619   1
   6   3  14 57.4666 5.62377   2
  -7   3  17 74.4628 3.77396  -2
   7   3  14 74.4628 3.77396   1
  -8   3  17 193.562 7.80087  -2
   8   3  14 193.562 7.80087   1
  -9   3  18 138.799 6.99684  -2
   9   3  14 138.799 6.99684   1
 -10   3  18 8.37059 3.79263  -2
  10   3  14 8.37059 3.79263   1
 -11   3  19 52.0184 7.53736  -2
  11   3  14 52.0184 7.53736   1
 -12   3  19 51.9398 5.08304  -2
  12   3  14 51.9398 5.08304   1
  14   4   8 8.11477 5.67719  -2
 -14   4  14 8.11477 5.67719   1
 -13   4  14 112.274 17.0843   2
  12   4   9 23.9801 3.83264  -2
 -12   4  14 23.9801 3.83264   1
  11   4   9 59.0336 6.81240  -2
 -11   4  14 59.0336 6.81240   1
  10   4  10 88.7268 5.03359  -2
 -10   4  14 88.7268 5.03359   1
   9   4  10 97.3272 5.68859  -2
  -9   4  14 97.3272 5.68859   1
   8   4  11 36.5728 5.06677  -2
  -8   4  14 36.5728 5.06677   1
   7   4  11 32.6935 3.10721  -2
  -7   4  14 32.6935 3.10721   1
  -6   4  14 171.061 14.5609   1
   6   4  11 245.609 20.3326  -2
  -6   4  14 245.609 20.3326   1
   5   4  12 134.727 5.47041  -2
  -5   4  14 134.727 5.47041   1
   4   4  12 155.489 7.28215  -2
  -4   4  14 155.489 7.28215   1
   3   4  13 82.1221 5.10673  -2
  -3   4  14 82.1221 5.10673   1
   2   4  13 125.827 5.26757  -2
  -2   4  14 125.827 5.26757   1
   1   4  14 377.803 27.7816  -2
  -1   4  14 377.803 27.7816   1
   0   4  14 164.032 6.12474  -2
   0   4  14 164.032 6.12474   1
  -1   4  14 335.682 17.7804  -2
   1   4  14 335.682 17.7804   1
  -2   4  15 167.351 8.13375  -2
   2   4  14 167.351 8.13375   1
  -3   4  15 358.677 14.8041  -2
   3   4  14 358.677 14.8041   1
  -4   4  15 196.430 25.7086  -2
   4   4  14 196.430 25.7086   1
  -4   4  16 164.658 7.58533  -2
   4   4  14 164.658 7.58533   1
  -5   4  16 427.727 11.9399  -2
   5   4  14 427.727 11.9399   1
  -6   4  16 206.677 26.3454  -2
   6   4  14 206.677 26.3454   1
  -6   4  17 281.053 27.1643  -2
   6   4  14 281.053 27.1643   1
  -7   4  17 186.814 7.14151  -2
   7   4  14 186.814 7.14151   1
  -8   4  17 60.3567 5.52051  -2
   8   4  14 60.3567 5.52051   1
  -9   4  18 69.2311 5.23111  -2
   9   4  14 69.2311 5.23111   1
 -10   4  18 112.903 7.66378  -2
  10   4  14 112.903 7.66378   1
 -11   4  19 47.1237 8.69732  -2
  11   4  14 47.1237 8.69732   1
 -12   4  19 19.8599 5.54903  -2
  12   4  14 19.8599 5.54903   1
  14   5   8 4.85237 4.41971  -2
 -14   5  14 4.85237 4.41971   1
 -13   5  14 -0.4485 7.72677   2
  12   5   9 81.9210 5.20541  -2
 -12   5  14 81.9210 5.20541   1
  11   5   9 130.905 9.72385  -2
 -11   5  14 130.905 9.72385   1
  10   5  10 45.0459 4.52964  -2
 -10   5  14 45.0459 4.52964   1
   9   5  10 2.66633 3.18189  -2
  -9   5  14 2.66633 3.18189   1
   8   5  11 137.603 6.41079  -2
  -8   5  14 137.603 6.41079   1
   7   5  11 290.187 10.8546  -2
  -7   5  14 290.187 10.8546   1
  -6   5  14 134.691 17.6589   2
  -6   5  14 123.514 10.6513   1
   6   5  11 116.672 7.78863  -2
  -6   5  14 116.672 7.78863   1
   5   5  12 21.5633 2.32376  -2
  -5   5  14 21.5633 2.32376   1
   4   5  12 37.1117 5.02939  -2
  -4   5  14 37.1117 5.02939   1
   3   5  13 393.363 11.4021  -2
  -3   5  14 393.363 11.4021   1
   2   5  13 386.002 15.3875  -2
  -2   5  14 386.002 15.3875   1
  -1   5  14 75.0770 6.45128   2
   1   5  14 69.1334 25.9827  -2
  -1   5  14 69.1334 25.9827   1
   0   5  14 7.70249 1.53327  -2
   0   5  14 7.70249 1.53327   1
  -1   5  14 99.4944 22.3523  -2
   1   5  14 99.4944 22.3523   1
   1   5  14 19.7186 2.38779   1
  -2   5  15 221.024 7.39465  -2
   2   5  14 221.024 7.39465   1
  -3   5  15 135.004 4.69026  -2
   3   5  14 135.004 4.69026   1
  -4   5  16 105.699 5.45830  -2
   4   5  14 105.699 5.45830   1
   4   5  14 97.3754 15.2580   1
  -5   5  16 24.9419 3.31742  -2
   5   5  14 24.9419 3.31742   1
  -6   5  16 255.045 30.0807  -2
   6   5  14 255.045 30.0807   1
  -6   5  17 114.907 18.5424  -2
   6   5  14 114.907 18.5424   1
  -7   5  17 116.783 5.29425  -2
   7   5  14 116.783 5.29425   1
  -8   5  17 20.8183 5.48979  -2
   8   5  14 20.8183 5.48979   1
  -9   5  18 37.9118 4.20308  -2
   9   5  14 37.9118 4.20308   1
 -10   5  18 40.5235 5.05955  -2
  10   5  14 40.5235 5.05955   1
 -11   5  18 30.0447 11.6648  -2
  11   5  14 30.0447 11.6648   1
 -11   5  19 2.40512 6.13548  -2
  11   5  14 2.40512 6.13548   1
 -12   5  19 10.0948 5.76574  -2
  12   5  14 10.0948 5.76574   1
 -13   6  14 6.26823 8.24074   2
  12   6   9 65.6292 5.05523  -2
 -12   6  14 65.6292 5.05523   1
  11   6   9 14.0182 5.86269  -2
 -11   6  14 14.0182 5.86269   1
  10   6  10 66.7181 5.28001  -2
 -10   6  14 66.7181 5.28001   1
   9   6  10 4.24653 3.55256  -2
  -9   6  14 4.24653 3.55256   1
   8   6  11 224.247 9.26430  -2
  -8   6  14 224.247 9.26430   1
   7   6  11 51.8795 3.41146  -2
  -7   6  14 51.8795 3.41146   1
  -6   6  14 11.9213 1.51052   1
   6   6  11 3.60877 9.65132  -2
  -6   6  14 3.60877 9.65132   1
  -6   6  14 11.4644 7.14530   2
   5   6  12 47.9339 3.74287  -2
  -5   6  14 47.9339 3.74287   1
   4   6  12 57.2771 3.13913  -2
  -4   6  14 57.2771 3.13913   1
   3   6  13 33.7254 4.15351  -2
  -3   6  14 33.7254 4.15351   1
   2   6  13 81.1306 4.66205  -2
  -2   6  14 81.1306 4.66205   1
   1   6  14 80.4954 9.57661  -2
  -1   6  14 80.4954 9.57661   1
  -1   6  14 104.678 8.66132   2
   0   6  14 17.4678 2.11677  -2
   0   6  14 17.4678 2.11677   1
  -1   6  14 103.422 6.37672  -2
   1   6  14 103.422 6.37672   1
  -2   6  15 171.408 6.48642  -2
   2   6  14 171.408 6.48642   1
  -3   6  15 306.463 10.4707  -2
   3   6  14 306.463 10.4707   1
  -4   6  16 113.449 5.69478  -2
   4   6  14 113.449 5.69478   1
  -5   6  16 26.6136 3.44652  -2
   5   6  14 26.6136 3.44652   1
  -6   6  16 14.9603 16.9262  -2
   6   6  14 14.9603 16.9262   1
  -6   6  17 54.1171 15.0778  -2
   6   6  14 54.1171 15.0778   1
  -7   6  17 53.1413 4.15981  -2
   7   6  14 53.1413 4.15981   1
  -8   6  17 130.732 8.92537  -2
   8   6  14 130.732 8.92537   1
  -9   6  18 0.77587 4.36263  -2
   9   6  14 0.77587 4.36263   1
  -9   6  17 66.7893 21.3067  -2
   9   6  14 66.7893 21.3067   1
 -10   6  18 119.805 7.01697  -2
  10   6  14 119.805 7.01697   1
 -11   6  19 87.1073 10.7006  -2
  11   6  14 87.1073 10.7006   1
 -11   6  19 12.6326 20.5074  -2
 -11   6  18 12.6326 20.5074  -2
  11   6  14 12.6326 20.5074   1
 -11   6  18 16.9408 14.4692  -2
  11   6  14 16.9408 14.4692   1
 -13   7  14 15.7659 10.1258   2
  12   7   9 12.6323 3.96224  -2
 -12   7  14 12.6323 3.96224   1
  11   7   9 5.34272 4.85024  -2
 -11   7  14 5.34272 4.85024   1
  10   7  10 66.8378 4.93701  -2
 -10   7  14 66.8378 4.93701   1
   9   7  10 38.2700 3.47546  -2
  -9   7  14 38.2700 3.47546   1
   8   7  11 30.7165 5.51328  -2
  -8   7  14 30.7165 5.51328   1
   7   7  11 7.22157 2.00778  -2
  -7   7  14 7.22157 2.00778   1
  -6   7  14 82.3086 4.95734   1
  -6   7  14 88.8752 13.6553   2
   6   7  11 183.019 34.3551  -2
  -6   7  14 183.019 34.3551   1
   5   7  12 47.6098 3.28661  -2
  -5   7  14 47.6098 3.28661   1
   4   7  12 133.903 6.82934  -2
  -4   7  14 133.903 6.82934   1
   3   7  13 125.310 5.92983  -2
  -3   7  14 125.310 5.92983   1
   2   7  13 397.434 12.0652  -2
  -2   7  14 397.434 12.0652   1
   1   7  14 278.504 14.0095  -2
  -1   7  14 278.504 14.0095   1
  -1   7  14 229.622 18.5420   2
   0   7  14 296.006 10.5336  -2
   0   7  14 296.006 10.5336   1
  -1   7  14 354.648 21.0498  -2
   1   7  14 354.648 21.0498   1
   1   7  14 61.5962 28.1109   1
  -2   7  15 722.307 21.7241  -2
   2   7  14 722.307 21.7241   1
  -3   7  15 384.921 11.8779  -2
   3   7  14 384.921 11.8779   1
  -4   7  16 252.565 9.67718  -2
   4   7  14 252.565 9.67718   1
  -5   7  16 93.5531 4.74802  -2
   5   7  14 93.5531 4.74802   1
  -6   7  17 189.416 28.7876  -2
   6   7  14 189.416 28.7876   1
  -7   7  17 54.1642 5.52770  -2
   7   7  14 54.1642 5.52770   1
  -8   7  17 38.5689 6.69908  -2
   8   7  14 38.5689 6.69908   1
  -9   7  18 34.2374 5.21901  -2
   9   7  14 34.2374 5.21901   1
  -9   7  17 144.826 25.6312  -2
   9   7  14 144.826 25.6312   1
 -10   7  18 55.7798 5.35364  -2
  10   7  14 55.7798 5.35364   1
 -11   7  18 48.4267 15.8264  -2
  11   7  14 48.4267 15.8264   1
 -11   7  19 -6.3990 9.96840  -2
  11   7  14 -6.3990 9.96840   1
  12   8   9 10.6700 4.65717  -2
 -12   8  14 10.6700 4.65717   1
  11   8   9 66.1349 9.75291  -2
 -11   8  14 66.1349 9.75291   1
  10   8  10 154.969 7.96262  -2
 -10   8  14 154.969 7.96262   1
   9   8  10 37.1351 4.16857  -2
  -9   8  14 37.1351 4.16857   1
   8   8  11 58.2910 6.36493  -2
  -8   8  14 58.2910 6.36493   1
   7   8  11 38.9525 3.11742  -2
  -7   8  14 38.9525 3.11742   1
  -6   8  14 4.70714 1.35186   1
  -6   8  14 6.89640 6.90789   2
   6   8  11 32.7066 52.1457  -2
  -6   8  14 32.7066 52.1457   1
   5   8  12 90.3962 4.83041  -2
  -5   8  14 90.3962 4.83041   1
   4   8  12 310.943 10.6879  -2
  -4   8  14 310.943 10.6879   1
   3   8  13 62.1888 4.18945  -2
  -3   8  14 62.1888 4.18945   1
   2   8  13 23.5735 3.12010  -2
  -2   8  14 23.5735 3.12010   1
   1   8  14 69.7982 8.67211  -2
  -1   8  14 69.7982 8.67211   1
  -1   8  14 34.4110 3.96474   2
   0   8  14 200.841 7.01447  -2
   0   8  14 200.841 7.01447   1
  -1   8  14 76.6472 7.70047  -2
   1   8  14 76.6472 7.70047   1
   1   8  14 39.0018 3.95050   1
  -2   8  15 37.4696 3.30000  -2
   2   8  14 37.4696 3.30000   1
  -3   8  15 17.4086 4.28687  -2
   3   8  14 17.4086 4.28687   1
  -4   8  16 42.4755 5.03773  -2
   4   8  14 42.4755 5.03773   1
  -5   8  16 237.431 8.25833  -2
   5   8  14 237.431 8.25833   1
  -7   8  17 10.4791 3.08729  -2
   7   8  14 10.4791 3.08729   1
  -8   8  17 51.7718 7.62013  -2
   8   8  14 51.7718 7.62013   1
  -9   8  18 101.839 6.70079  -2
   9   8  14 101.839 6.70079   1
   9   8  14 91.5371 18.0039   1
 -10   8  18 -2.9599 3.84549  -2
  10   8  14 -2.9599 3.84549   1
  11   8  14 4.47022 4.04170   1
  11   8  14 -0.2279 4.94829   2
 -11   8  18 21.0886 15.0061  -2
  11   8  14 21.0886 15.0061   1
  12   9   9 1.07428 6.64232  -2
 -12   9  14 1.07428 6.64232   1
  11   9   9 -0.6641 13.3452  -2
 -11   9  14 -0.6641 13.3452   1
  10   9  10 57.1607 5.52282  -2
 -10   9  14 57.1607 5.52282   1
   9   9  10 79.9927 6.10825  -2
  -9   9  14 79.9927 6.10825   1
   8   9  11 44.4760 9.14324  -2
  -8   9  14 44.4760 9.14324   1
   7   9  11 51.3796 4.38615  -2
  -7   9  14 51.3796 4.38615   1
   6   9  11 0.85727 31.6247  -2
  -6   9  14 0.85727 31.6247   1
   5   9  12 61.9136 3.99539  -2
  -5   9  14 61.9136 3.99539   1
   4   9  12 385.216 13.9393  -2
  -4   9  14 385.216 13.9393   1
   3   9  13 57.5282 4.49502  -2
  -3   9  14 57.5282 4.49502   1
   2   9  13 18.2326 3.43291  -2
  -2   9  14 18.2326 3.43291   1
   1   9  14 43.5418 7.25012  -2
  -1   9  14 43.5418 7.25012   1
  -1   9  14 22.0803 21.2533   2
   0   9  14 112.720 6.01884  -2
   0   9  14 112.720 6.01884   1
  -1   9  14 17.5853 3.51272  -2
   1   9  14 17.5853 3.51272   1
   1   9  14 -8.7117 17.8623   1
  -2   9  15 59.7759 5.05827  -2
   2   9  14 59.7759 5.05827   1
  -3   9  15 87.1692 5.94301  -2
   3   9  14 87.1692 5.94301   1
  -4   9  16 75.2589 6.44729  -2
   4   9  14 75.2589 6.44729   1
  -5   9  16 24.0434 5.68952  -2
   5   9  14 24.0434 5.68952   1
  -6   9  17 41.4653 14.2074  -2
   6   9  14 41.4653 14.2074   1
  -6   9  16 41.0733 10.4007  -2
   6   9  14 41.0733 10.4007   1
  -7   9  17 122.666 6.28012  -2
   7   9  14 122.666 6.28012   1
  -8   9  17 29.2560 5.79094  -2
   8   9  14 29.2560 5.79094   1
   8   9  14 -4.1613 6.19725   1
  -9   9  18 23.8656 5.18103  -2
   9   9  14 23.8656 5.18103   1
 -10   9  18 -4.9620 6.97766  -2
  10   9  14 -4.9620 6.97766   1
  11  10   9 -8.6652 12.2638  -2
 -11  10  14 -8.6652 12.2638   1
  10  10  10 19.7820 5.43181  -2
 -10  10  14 19.7820 5.43181   1
   9  10  10 5.09992 3.72519  -2
  -9  10  14 5.09992 3.72519   1
   8  10  11 76.8436 12.2697  -2
  -8  10  14 76.8436 12.2697   1
   7  10  11 173.734 8.09838  -2
  -7  10  14 173.734 8.09838   1
  -6  10  14 25.0793 20.3574   1
   5  10  12 49.3628 3.96229  -2
  -5  10  14 49.3628 3.96229   1
   4  10  12 17.6471 4.30079  -2
  -4  10  14 17.6471 4.30079   1
   3  10  13 187.692 8.19832  -2
  -3  10  14 187.692 8.19832   1
   2  10  13 163.286 6.82890  -2
  -2  10  14 163.286 6.82890   1
   1  10  14 126.942 12.8191  -2
  -1  10  14 126.942 12.8191   1
   0  10  14 29.5733 3.75963  -2
   0  10  14 29.5733 3.75963   1
  -1  10  14 130.468 18.3956  -2
   1  10  14 130.468 18.3956   1
  -2  10  15 137.641 7.28203  -2
   2  10  14 137.641 7.28203   1
  -3  10  15 81.5380 6.17319  -2
   3  10  14 81.5380 6.17319   1
  -4  10  16 -21.008 52.1489  -2
   4  10  14 -21.008 52.1489   1
  -5  10  16 29.5047 4.61755  -2
   5  10  14 29.5047 4.61755   1
  -7  10  17 13.5485 3.42822  -2
   7  10  14 13.5485 3.42822   1
  -8  10  17 6.32483 6.24982  -2
   8  10  14 6.32483 6.24982   1
  -9  10  18 24.3227 6.44474  -2
   9  10  14 24.3227 6.44474   1
  10  11  10 43.2524 6.12003  -2
 -10  11  14 43.2524 6.12003   1
   9  11  10 42.8445 4.41471  -2
  -9  11  14 42.8445 4.41471   1
   8  11  11 61.6173 11.6672  -2
  -8  11  14 61.6173 11.6672   1
   7  11  11 137.265 7.35260  -2
  -7  11  14 137.265 7.35260   1
   5  11  12 18.5023 3.27441  -2
  -5  11  14 18.5023 3.27441   1
   4  11  12 26.0002 6.46827  -2
  -4  11  14 26.0002 6.46827   1
   3  11  13 59.9583 5.40930  -2
  -3  11  14 59.9583 5.40930   1
   2  11  13 79.7009 4.59488  -2
  -2  11  14 79.7009 4.59488   1
   1  11  14 17.4346 12.0428  -2
  -1  11  14 17.4346 12.0428   1
  -1  11  14 -15.158 16.7330   1
   0  11  14 34.5556 3.81935  -2
   0  11  14 34.5556 3.81935   1
  -1  11  14 4.98415 48.1829  -2
   1  11  14 4.98415 48.1829   1
   1  11  14 29.6538 22.5644   2
  -2  11  15 104.024 7.05407  -2
   2  11  14 104.024 7.05407   1
  -3  11  15 57.2146 11.1783  -2
   3  11  14 57.2146 11.1783   1
  -4  11  16 19.2583 5.70754  -2
   4  11  14 19.2583 5.70754   1
  -5  11  16 15.3191 4.29706  -2
   5  11  14 15.3191 4.29706   1
  -6  11  16 105.196 20.9805  -2
   6  11  14 105.196 20.9805   1
  -7  11  17 12.3874 3.45804  -2
   7  11  14 12.3874 3.45804   1
  -8  11  17 -1.6318 15.2300  -2
   8  11  14 -1.6318 15.2300   1
   9  11  14 4.01914 3.40733   1
   9  11  14 -1.5917 3.08827   2
 -10  12  14 -0.4403 6.42460   2
   9  12  10 17.1487 4.64192  -2
  -9  12  14 17.1487 4.64192   1
   8  12  11 74.4849 19.8323  -2
  -8  12  14 74.4849 19.8323   1
   7  12  11 2.14471 3.44029  -2
  -7  12  14 2.14471 3.44029   1
   6  12  12 -3.4435 13.7501  -2
  -6  12  14 -3.4435 13.7501   1
   5  12  12 27.6439 4.10263  -2
  -5  12  14 27.6439 4.10263   1
   4  12  12 85.1336 7.47665  -2
  -4  12  14 85.1336 7.47665   1
   3  12  13 24.1044 4.25802  -2
  -3  12  14 24.1044 4.25802   1
   2  12  13 37.3180 5.41625  -2
  -2  12  14 37.3180 5.41625   1
   1  12  14 42.8740 12.9287  -2
  -1  12  14 42.8740 12.9287   1
   0  12  14 402.401 14.5330  -2
   0  12  14 402.401 14.5330   1
  -1  12  14 45.8724 16.1438  -2
   1  12  14 45.8724 16.1438   1
  -2  12  15 59.6188 6.53993  -2
   2  12  14 59.6188 6.53993   1
  -3  12  15 58.1526 6.35247  -2
   3  12  14 58.1526 6.35247   1
  -4  12  16 243.229 12.9459  -2
   4  12  14 243.229 12.9459   1
  -5  12  16 12.6801 3.66600  -2
   5  12  14 12.6801 3.66600   1
  -6  12  16 63.4242 20.1601  -2
   6  12  14 63.4242 20.1601   1
  -7  12  17 18.8066 4.39632  -2
   7  12  14 18.8066 4.39632   1
   8  13  11 37.1979 14.7269  -2
  -8  13  14 37.1979 14.7269   1
   7  13  11 16.1379 3.87031  -2
  -7  13  14 16.1379 3.87031   1
  -6  13  14 14.6904 8.19755   1
   5  13  12 14.7549 3.48950  -2
  -5  13  14 14.7549 3.48950   1
   4  13  12 144.579 8.00131  -2
  -4  13  14 144.579 8.00131   1
   3  13  13 17.1891 4.25982  -2
  -3  13  14 17.1891 4.25982   1
   2  13  13 7.61367 3.85994  -2
  -2  13  14 7.61367 3.85994   1
   1  13  14 28.4688 9.18076  -2
  -1  13  14 28.4688 9.18076   1
  -1  13  14 37.4615 28.3509   2
   0  13  14 227.200 10.5279  -2
   0  13  14 227.200 10.5279   1
  -1  13  14 15.9308 13.2818  -2
   1  13  14 15.9308 13.2818   1
  -2  13  15 51.7351 5.08924  -2
   2  13  14 51.7351 5.08924   1
  -3  13  15 21.0216 4.84237  -2
   3  13  14 21.0216 4.84237   1
  -4  13  16 99.9939 8.81663  -2
   4  13  14 99.9939 8.81663   1
  -5  13  16 7.66739 4.46619  -2
   5  13  14 7.66739 4.46619   1
   7  13  14 0.05560 7.27685   1
   7  13  14 24.2106 7.26638   2
   7  14  11 10.7952 3.96340  -2
  -7  14  14 10.7952 3.96340   1
   6  14  12 36.5289 14.9268  -2
  -6  14  14 36.5289 14.9268   1
   5  14  12 19.4338 4.07457  -2
  -5  14  14 19.4338 4.07457   1
   4  14  12 46.1037 5.44898  -2
  -4  14  14 46.1037 5.44898   1
   3  14  13 14.4346 4.46426  -2
  -3  14  14 14.4346 4.46426   1
   2  14  13 8.35529 4.81031  -2
  -2  14  14 8.35529 4.81031   1
   1  14  13 55.1314 23.4209  -2
   1  14  14 55.1314 23.4209  -2
  -1  14  14 55.1314 23.4209   1
   1  14  14 64.3129 11.3959  -2
  -1  14  14 64.3129 11.3959   1
   0  14  14 8.09360 3.18575  -2
   0  14  14 8.09360 3.18575   1
  -1  14  14 78.3406 17.7798  -2
   1  14  14 78.3406 17.7798   1
  -2  14  15 15.9565 4.34250  -2
   2  14  14 15.9565 4.34250   1
  -3  14  15 16.8723 5.21810  -2
   3  14  14 16.8723 5.21810   1
  -4  14  16 5.62101 13.3579  -2
   4  14  14 5.62101 13.3579   1
  -5  14  16 20.1887 10.7114  -2
   5  14  14 20.1887 10.7114   1
   5  15  12 1.62521 5.76658  -2
  -5  15  14 1.62521 5.76658   1
   4  15  12 5.72161 8.20595  -2
  -4  15  14 5.72161 8.20595   1
   3  15  13 7.64275 5.86390  -2
  -3  15  14 7.64275 5.86390   1
   2  15  13 8.12591 4.29336  -2
  -2  15  14 8.12591 4.29336   1
   1  15  14 -14.994 8.67435  -2
  -1  15  14 -14.994 8.67435   1
   0  15  14 21.4222 3.92136  -2
   0  15  14 21.4222 3.92136   1
  -1  15  14 28.5980 17.1473  -2
   1  15  14 28.5980 17.1473   1
  -2  15  15 37.0762 8.19101  -2
   2  15  14 37.0762 8.19101   1
  14   0   9 14.9600 8.17422  -2
 -14   0  15 14.9600 8.17422   1
  12   0  10 13.0739 4.36316  -2
 -12   0  15 13.0739 4.36316   1
  11   0  10 29.1562 7.24064  -2
 -11   0  15 29.1562 7.24064   1
  10   0  11 10.6447 5.23965  -2
 -10   0  15 10.6447 5.23965   1
   9   0  11 221.166 14.8176  -2
  -9   0  15 221.166 14.8176   1
   8   0  12 105.551 9.85443  -2
  -8   0  15 105.551 9.85443   1
   7   0  12 -9.9149 4.14335  -2
  -7   0  15 -9.9149 4.14335   1
  -6   0  15 2.22440 3.40239   1
   6   0  12 18.1680 33.0079  -2
  -6   0  15 18.1680 33.0079   1
   5   0  13 221.078 11.1020  -2
  -5   0  15 221.078 11.1020   1
   4   0  13 -5.6928 3.85134  -2
  -4   0  15 -5.6928 3.85134   1
   3   0  14 35.7718 3.79732  -2
  -3   0  15 35.7718 3.79732   1
   2   0  14 40.7144 5.23850  -2
  -2   0  15 40.7144 5.23850   1
   1   0  15 112.514 34.9431  -2
  -1   0  15 112.514 34.9431   1
   0   0  15 1.32523 1.78055  -2
   0   0  15 1.32523 1.78055   1
  -1   0  15 133.778 10.1199  -2
   1   0  15 133.778 10.1199   1
  -2   0  16 133.884 8.67884  -2
   2   0  15 133.884 8.67884   1
  -3   0  16 379.571 18.6050  -2
   3   0  15 379.571 18.6050   1
  -4   0  17 3.77680 4.98602  -2
   4   0  15 3.77680 4.98602   1
  -5   0  17 54.5539 6.22805  -2
   5   0  15 54.5539 6.22805   1
  -6   0  17 26.1185 13.7527  -2
   6   0  15 26.1185 13.7527   1
  -6   0  18 132.885 69.5589  -2
   6   0  15 132.885 69.5589   1
  -7   0  18 101.601 7.46036  -2
   7   0  15 101.601 7.46036   1
  -8   0  18 1.07518 9.02821  -2
   8   0  15 1.07518 9.02821   1
  -9   0  18 124.728 22.5141  -2
   9   0  15 124.728 22.5141   1
  -9   0  19 119.300 8.66338  -2
   9   0  15 119.300 8.66338   1
 -10   0  19 3.12841 6.28969  -2
  10   0  15 3.12841 6.28969   1
 -11   0  20 -4.1572 10.4476  -2
  11   0  15 -4.1572 10.4476   1
 -11   0  19 39.7542 18.6337  -2
  11   0  15 39.7542 18.6337   1
 -12   0  20 7.24217 6.45900  -2
  12   0  15 7.24217 6.45900   1
  14   1   9 38.1721 6.77278  -2
 -14   1  15 38.1721 6.77278   1
  12   1  10 82.3714 4.98089  -2
 -12   1  15 82.3714 4.98089   1
  11   1  10 145.031 8.71020  -2
 -11   1  15 145.031 8.71020   1
  10   1  11 36.5758 3.68607  -2
 -10   1  15 36.5758 3.68607   1
   9   1  11 35.6636 4.16922  -2
  -9   1  15 35.6636 4.16922   1
   8   1  12 172.931 8.74674  -2
  -8   1  15 172.931 8.74674   1
   7   1  12 606.705 18.0958  -2
  -7   1  15 606.705 18.0958   1
   6   1  12 12.9384 2.50045  -2
  -6   1  15 12.9384 2.50045   1
  -6   1  15 21.3082 4.49692   1
   5   1  13 300.777 10.5978  -2
  -5   1  15 300.777 10.5978   1
   4   1  13 88.7217 4.87844  -2
  -4   1  15 88.7217 4.87844   1
   3   1  14 284.224 9.01244  -2
  -3   1  15 284.224 9.01244   1
   2   1  14 105.222 4.44299  -2
  -2   1  15 105.222 4.44299   1
   1   1  15 145.784 8.41280  -2
  -1   1  15 145.784 8.41280   1
   0   1  15 229.992 6.97799  -2
   0   1  15 229.992 6.97799   1
  -1   1  15 157.757 8.14152  -2
   1   1  15 157.757 8.14152   1
  -2   1  16 192.577 7.56433  -2
   2   1  15 192.577 7.56433   1
  -3   1  16 9.94810 3.30425  -2
   3   1  15 9.94810 3.30425   1
  -4   1  17 143.382 7.01984  -2
   4   1  15 143.382 7.01984   1
  -4   1  16 154.246 20.1177  -2
   4   1  15 154.246 20.1177   1
  -5   1  17 40.3818 4.28516  -2
   5   1  15 40.3818 4.28516   1
  -6   1  18 -14.598 12.1893  -2
   6   1  15 -14.598 12.1893   1
  -6   1  17 92.2535 12.2008  -2
   6   1  15 92.2535 12.2008   1
  -7   1  18 201.254 6.63132  -2
   7   1  15 201.254 6.63132   1
  -8   1  18 100.131 9.15224  -2
   8   1  15 100.131 9.15224   1
  -9   1  19 124.155 5.92787  -2
   9   1  15 124.155 5.92787   1
 -10   1  19 11.6712 4.42154  -2
  10   1  15 11.6712 4.42154   1
 -11   1  20 111.368 8.41872  -2
  11   1  15 111.368 8.41872   1
 -11   1  19 139.271 17.1921  -2
  11   1  15 139.271 17.1921   1
 -12   1  20 7.26951 4.16992  -2
  12   1  15 7.26951 4.16992   1
  14   2   9 48.2587 7.65926  -2
 -14   2  15 48.2587 7.65926   1
  12   2  10 20.0042 3.92713  -2
 -12   2  15 20.0042 3.92713   1
  11   2  10 94.7372 7.15101  -2
 -11   2  15 94.7372 7.15101   1
  10   2  11 369.261 14.7525  -2
 -10   2  15 369.261 14.7525   1
   9   2  11 128.087 5.60035  -2
  -9   2  15 128.087 5.60035   1
   8   2  12 191.569 10.9118  -2
  -8   2  15 191.569 10.9118   1
   7   2  12 18.2443 2.49232  -2
  -7   2  15 18.2443 2.49232   1
   6   2  12 158.438 15.0118  -2
  -6   2  15 158.438 15.0118   1
  -6   2  15 1.01328 2.57214   1
   5   2  13 467.585 13.6420  -2
  -5   2  15 467.585 13.6420   1
   4   2  13 492.090 17.2560  -2
  -4   2  15 492.090 17.2560   1
   3   2  14 188.650 7.91528  -2
  -3   2  15 188.650 7.91528   1
   2   2  14 94.2179 4.92175  -2
  -2   2  15 94.2179 4.92175   1
   1   2  15 287.996 23.4236  -2
  -1   2  15 287.996 23.4236   1
   0   2  15 278.333 7.38367  -2
   0   2  15 278.333 7.38367   1
  -1   2  15 338.693 14.2419  -2
   1   2  15 338.693 14.2419   1
  -2   2  16 31.5690 3.77983  -2
   2   2  15 31.5690 3.77983   1
  -3   2  16 60.0805 4.86243  -2
   3   2  15 60.0805 4.86243   1
  -4   2  17 99.5340 6.63516  -2
   4   2  15 99.5340 6.63516   1
  -5   2  17 89.4412 5.60438  -2
   5   2  15 89.4412 5.60438   1
  -6   2  18 53.6927 7.18901  -2
   6   2  15 53.6927 7.18901   1
  -6   2  17 45.9450 10.9205  -2
   6   2  15 45.9450 10.9205   1
  -7   2  18 92.0553 3.98799  -2
   7   2  15 92.0553 3.98799   1
  -8   2  18 105.622 6.27279  -2
   8   2  15 105.622 6.27279   1
  -9   2  19 35.8065 4.83858  -2
   9   2  15 35.8065 4.83858   1
 -10   2  19 1.27571 3.76934  -2
  10   2  15 1.27571 3.76934   1
 -11   2  20 22.0689 8.52862  -2
  11   2  15 22.0689 8.52862   1
  11   2  15 11.0757 8.91275   1
 -12   2  20 35.2054 5.27688  -2
  12   2  15 35.2054 5.27688   1
  14   3   9 60.6897 8.25478  -2
 -14   3  15 60.6897 8.25478   1
  12   3  10 70.2725 5.65292  -2
 -12   3  15 70.2725 5.65292   1
  11   3  10 12.8113 5.08613  -2
 -11   3  15 12.8113 5.08613   1
  10   3  11 43.6957 4.48634  -2
 -10   3  15 43.6957 4.48634   1
   9   3  11 42.5816 4.14516  -2
  -9   3  15 42.5816 4.14516   1
   8   3  12 51.3819 5.74582  -2
  -8   3  15 51.3819 5.74582   1
   7   3  12 45.7340 3.07679  -2
  -7   3  15 45.7340 3.07679   1
  -6   3  15 79.5146 7.79973   1
   6   3  12 72.8935 11.1138  -2
  -6   3  15 72.8935 11.1138   1
   5   3  13 20.6547 1.57272  -2
  -5   3  15 20.6547 1.57272   1
   4   3  13 67.1272 5.96248  -2
  -4   3  15 67.1272 5.96248   1
   3   3  14 78.2769 5.23744  -2
  -3   3  15 78.2769 5.23744   1
   2   3  14 148.133 7.72166  -2
  -2   3  15 148.133 7.72166   1
   1   3  14 323.411 30.5193  -2
  -1   3  15 323.411 30.5193   1
   1   3  15 14.0766 8.79074  -2
  -1   3  15 14.0766 8.79074   1
   0   3  15 243.581 9.80293  -2
   0   3  15 243.581 9.80293   1
  -1   3  15 32.5119 5.83068  -2
   1   3  15 32.5119 5.83068   1
  -2   3  16 123.017 5.74460  -2
   2   3  15 123.017 5.74460   1
  -3   3  16 342.565 12.6749  -2
   3   3  15 342.565 12.6749   1
  -4   3  17 442.007 15.9800  -2
   4   3  15 442.007 15.9800   1
  -5   3  17 31.1868 2.81324  -2
   5   3  15 31.1868 2.81324   1
  -6   3  18 158.756 18.3728  -2
   6   3  15 158.756 18.3728   1
  -6   3  17 186.760 17.1705  -2
   6   3  15 186.760 17.1705   1
  -7   3  18 167.969 6.29031  -2
   7   3  15 167.969 6.29031   1
  -8   3  18 36.4613 4.93984  -2
   8   3  15 36.4613 4.93984   1
  -9   3  19 5.35111 3.15352  -2
   9   3  15 5.35111 3.15352   1
 -10   3  19 130.156 8.83014  -2
  10   3  15 130.156 8.83014   1
 -11   3  20 64.5855 7.74294  -2
  11   3  15 64.5855 7.74294   1
 -11   3  19 37.0410 12.8215  -2
  11   3  15 37.0410 12.8215   1
 -12   3  20 46.8451 7.05642  -2
  12   3  15 46.8451 7.05642   1
  14   4   9 34.8036 6.11759  -2
 -14   4  15 34.8036 6.11759   1
  13   4   9 84.1425 13.9104  -2
 -13   4  15 84.1425 13.9104   1
 -13   4  15 3.06489 7.43749   2
  12   4  10 46.6355 4.16075  -2
 -12   4  15 46.6355 4.16075   1
  11   4  10 161.145 8.14015  -2
 -11   4  15 161.145 8.14015   1
  10   4  11 87.4071 5.95188  -2
 -10   4  15 87.4071 5.95188   1
   9   4  11 110.969 5.05217  -2
  -9   4  15 110.969 5.05217   1
   8   4  12 35.2468 4.14328  -2
  -8   4  15 35.2468 4.14328   1
   7   4  12 101.750 4.79261  -2
  -7   4  15 101.750 4.79261   1
   6   4  12 32.6972 4.50226  -2
  -6   4  15 32.6972 4.50226   1
  -6   4  15 11.1753 2.31260   1
   5   4  13 169.964 6.16881  -2
  -5   4  15 169.964 6.16881   1
   4   4  13 281.381 12.2284  -2
  -4   4  15 281.381 12.2284   1
   3   4  14 398.606 13.0195  -2
  -3   4  15 398.606 13.0195   1
   2   4  14 151.069 6.90874  -2
  -2   4  15 151.069 6.90874   1
   1   4  15 244.691 15.9961  -2
  -1   4  15 244.691 15.9961   1
   0   4  15 979.656 27.6967  -2
   0   4  15 979.656 27.6967   1
  -1   4  15 251.693 15.4355  -2
   1   4  15 251.693 15.4355   1
  -2   4  16 470.302 15.3088  -2
   2   4  15 470.302 15.3088   1
  -3   4  16 317.411 10.6321  -2
   3   4  15 317.411 10.6321   1
  -4   4  17 379.900 13.0586  -2
   4   4  15 379.900 13.0586   1
  -5   4  17 431.532 12.6129  -2
   5   4  15 431.532 12.6129   1
  -6   4  17 132.391 14.7579  -2
   6   4  15 132.391 14.7579   1
  -6   4  18 99.7065 14.7135  -2
   6   4  15 99.7065 14.7135   1
  -7   4  18 42.4198 3.80838  -2
   7   4  15 42.4198 3.80838   1
  -8   4  18 66.2688 9.88516  -2
   8   4  15 66.2688 9.88516   1
  -9   4  19 115.027 6.80407  -2
   9   4  15 115.027 6.80407   1
  -9   4  18 130.955 24.5685  -2
   9   4  15 130.955 24.5685   1
 -10   4  19 4.85362 4.57481  -2
  10   4  15 4.85362 4.57481   1
 -11   4  19 35.4264 16.9206  -2
  11   4  15 35.4264 16.9206   1
 -11   4  20 9.32779 9.27356  -2
  11   4  15 9.32779 9.27356   1
 -12   4  20 1.29192 6.35296  -2
  12   4  15 1.29192 6.35296   1
  12   5  10 66.4448 4.83552  -2
 -12   5  15 66.4448 4.83552   1
  11   5  10 120.562 9.10631  -2
 -11   5  15 120.562 9.10631   1
  10   5  11 97.6699 5.21087  -2
 -10   5  15 97.6699 5.21087   1
   9   5  11 13.4055 2.89591  -2
  -9   5  15 13.4055 2.89591   1
   8   5  12 122.281 6.72511  -2
  -8   5  15 122.281 6.72511   1
   7   5  12 277.383 8.97597  -2
  -7   5  15 277.383 8.97597   1
   6   5  12 160.552 12.2143  -2
  -6   5  15 160.552 12.2143   1
   5   5  13 3.76264 2.74521  -2
  -5   5  15 3.76264 2.74521   1
   4   5  13 75.3280 5.15247  -2
  -4   5  15 75.3280 5.15247   1
   3   5  14 115.703 5.04498  -2
  -3   5  15 115.703 5.04498   1
   2   5  14 246.922 8.17817  -2
  -2   5  15 246.922 8.17817   1
   1   5  15 294.751 18.3508  -2
  -1   5  15 294.751 18.3508   1
   0   5  15 2.84029 1.38263  -2
   0   5  15 2.84029 1.38263   1
  -1   5  15 275.983 17.5495  -2
   1   5  15 275.983 17.5495   1
  -2   5  16 241.382 7.52062  -2
   2   5  15 241.382 7.52062   1
  -3   5  16 163.899 6.42797  -2
   3   5  15 163.899 6.42797   1
  -4   5  17 58.3612 4.20785  -2
   4   5  15 58.3612 4.20785   1
  -4   5  16 43.1698 16.5963  -2
   4   5  15 43.1698 16.5963   1
  -5   5  17 96.9067 4.95768  -2
   5   5  15 96.9067 4.95768   1
  -6   5  17 62.7522 13.1201  -2
   6   5  15 62.7522 13.1201   1
  -6   5  18 6.17021 12.6253  -2
   6   5  15 6.17021 12.6253   1
  -7   5  18 64.0501 4.37502  -2
   7   5  15 64.0501 4.37502   1
  -8   5  18 39.7612 13.6060  -2
   8   5  15 39.7612 13.6060   1
  -9   5  19 2.14796 4.71411  -2
   9   5  15 2.14796 4.71411   1
  -9   5  18 14.2077 10.7563  -2
   9   5  15 14.2077 10.7563   1
 -10   5  19 49.0949 5.75025  -2
  10   5  15 49.0949 5.75025   1
 -11   5  19 30.8819 19.4885  -2
  11   5  15 30.8819 19.4885   1
 -11   5  20 31.5042 9.15213  -2
  11   5  15 31.5042 9.15213   1
  12   6  10 29.4488 5.09182  -2
 -12   6  15 29.4488 5.09182   1
  11   6  10 1.48643 7.60860  -2
 -11   6  15 1.48643 7.60860   1
  10   6  11 17.2613 3.14492  -2
 -10   6  15 17.2613 3.14492   1
   9   6  11 68.4583 4.96547  -2
  -9   6  15 68.4583 4.96547   1
   8   6  12 21.7331 6.66556  -2
  -8   6  15 21.7331 6.66556   1
   7   6  12 132.116 5.81243  -2
  -7   6  15 132.116 5.81243   1
   6   6  12 114.259 12.9851  -2
  -6   6  15 114.259 12.9851   1
  -6   6  15 38.4157 9.89083   2
   5   6  13 54.2805 3.42882  -2
  -5   6  15 54.2805 3.42882   1
   4   6  13 259.278 9.34970  -2
  -4   6  15 259.278 9.34970   1
   3   6  14 399.370 14.2380  -2
  -3   6  15 399.370 14.2380   1
   2   6  14 159.214 7.33326  -2
  -2   6  15 159.214 7.33326   1
   1   6  15 151.710 12.7178  -2
  -1   6  15 151.710 12.7178   1
   0   6  15 58.4287 5.22666  -2
   0   6  15 58.4287 5.22666   1
  -1   6  15 163.709 9.95696  -2
   1   6  15 163.709 9.95696   1
  -2   6  16 109.100 4.88904  -2
   2   6  15 109.100 4.88904   1
  -3   6  16 116.451 6.46311  -2
   3   6  15 116.451 6.46311   1
  -4   6  17 61.7134 5.13432  -2
   4   6  15 61.7134 5.13432   1
   4   6  15 100.872 16.5836   1
  -5   6  17 397.040 12.2710  -2
   5   6  15 397.040 12.2710   1
  -6   6  18 54.6567 19.1456  -2
   6   6  15 54.6567 19.1456   1
  -7   6  18 51.8373 4.61666  -2
   7   6  15 51.8373 4.61666   1
  -8   6  18 115.149 11.3021  -2
   8   6  15 115.149 11.3021   1
  -9   6  19 237.270 10.8892  -2
   9   6  15 237.270 10.8892   1
  -9   6  18 212.628 31.2110  -2
   9   6  15 212.628 31.2110   1
 -10   6  19 2.91052 4.99426  -2
  10   6  15 2.91052 4.99426   1
 -11   6  20 22.1708 12.3198  -2
  11   6  15 22.1708 12.3198   1
 -13   7  15 12.8524 6.04293   2
  12   7  10 2.52947 3.73454  -2
 -12   7  15 2.52947 3.73454   1
  11   7  10 41.7583 7.69228  -2
 -11   7  15 41.7583 7.69228   1
  10   7  11 4.46356 3.43473  -2
 -10   7  15 4.46356 3.43473   1
   9   7  11 82.4700 4.80383  -2
  -9   7  15 82.4700 4.80383   1
   8   7  12 28.7441 7.62142  -2
  -8   7  15 28.7441 7.62142   1
   7   7  12 134.028 5.43593  -2
  -7   7  15 134.028 5.43593   1
   6   7  12 81.0164 10.3766  -2
  -6   7  15 81.0164 10.3766   1
   5   7  13 252.577 10.0687  -2
  -5   7  15 252.577 10.0687   1
   4   7  13 178.332 7.50971  -2
  -4   7  15 178.332 7.50971   1
   3   7  14 420.916 13.4839  -2
  -3   7  15 420.916 13.4839   1
   2   7  14 619.317 18.3884  -2
  -2   7  15 619.317 18.3884   1
   1   7  15 405.834 21.1981  -2
  -1   7  15 405.834 21.1981   1
   0   7  15 9.20186 2.51383  -2
   0   7  15 9.20186 2.51383   1
  -1   7  15 352.266 18.5443  -2
   1   7  15 352.266 18.5443   1
  -2   7  16 139.971 5.41300  -2
   2   7  15 139.971 5.41300   1
  -3   7  16 159.433 7.19557  -2
   3   7  15 159.433 7.19557   1
  -4   7  17 61.6712 5.70967  -2
   4   7  15 61.6712 5.70967   1
  -5   7  17 106.048 4.94213  -2
   5   7  15 106.048 4.94213   1
  -6   7  18 -38.163 75.7586  -2
   6   7  15 -38.163 75.7586   1
  -7   7  18 126.659 6.55285  -2
   7   7  15 126.659 6.55285   1
  -8   7  18 64.8902 6.52006  -2
   8   7  15 64.8902 6.52006   1
  -9   7  19 7.40575 5.95400  -2
   9   7  15 7.40575 5.95400   1
  -9   7  18 43.7600 19.6605  -2
   9   7  15 43.7600 19.6605   1
 -10   7  19 4.31990 4.53506  -2
  10   7  15 4.31990 4.53506   1
  11   7  15 2.18444 3.90517   2
 -11   7  19 9.72031 10.4227  -2
  11   7  15 9.72031 10.4227   1
  11   7  15 13.6200 5.00681   1
  12   8  10 4.41288 4.65541  -2
 -12   8  15 4.41288 4.65541   1
  10   8  11 6.98200 4.10855  -2
 -10   8  15 6.98200 4.10855   1
   9   8  11 159.049 9.91967  -2
  -9   8  15 159.049 9.91967   1
   8   8  12 6.86715 62.4500  -2
  -8   8  15 6.86715 62.4500   1
   7   8  12 12.9130 3.22769  -2
  -7   8  15 12.9130 3.22769   1
   6   8  12 46.5845 56.4574  -2
  -6   8  15 46.5845 56.4574   1
   5   8  13 42.1412 3.46448  -2
  -5   8  15 42.1412 3.46448   1
   4   8  13 105.193 6.12206  -2
  -4   8  15 105.193 6.12206   1
   3   8  14 20.8545 3.43550  -2
  -3   8  15 20.8545 3.43550   1
   2   8  14 30.3868 3.39188  -2
  -2   8  15 30.3868 3.39188   1
   1   8  15 16.9717 7.39283  -2
  -1   8  15 16.9717 7.39283   1
   0   8  15 202.971 6.87072  -2
   0   8  15 202.971 6.87072   1
  -1   8  15 68.0664 9.16911  -2
   1   8  15 68.0664 9.16911   1
  -2   8  16 44.3973 3.73771  -2
   2   8  15 44.3973 3.73771   1
  -3   8  16 34.7721 4.69666  -2
   3   8  15 34.7721 4.69666   1
  -4   8  17 74.6949 5.66930  -2
   4   8  15 74.6949 5.66930   1
  -5   8  17 16.4731 2.83485  -2
   5   8  15 16.4731 2.83485   1
  -6   8  17 23.4862 8.01922  -2
   6   8  15 23.4862 8.01922   1
  -7   8  18 -0.6437 3.03443  -2
   7   8  15 -0.6437 3.03443   1
  -8   8  18 63.5829 7.22354  -2
   8   8  15 63.5829 7.22354   1
  -9   8  19 10.9529 4.76667  -2
   9   8  15 10.9529 4.76667   1
  -9   8  18 89.2943 22.7275  -2
   9   8  15 89.2943 22.7275   1
 -10   8  19 22.4102 6.17124  -2
  10   8  15 22.4102 6.17124   1
 -12   9  15 32.7465 4.26186   2
 -12   9  15 25.7753 8.33086   1
  11   9  10 24.1400 13.8477  -2
 -11   9  15 24.1400 13.8477   1
  10   9  11 2.86803 4.74143  -2
 -10   9  15 2.86803 4.74143   1
   9   9  11 68.8269 5.24666  -2
  -9   9  15 68.8269 5.24666   1
   8   9  12 57.3106 12.8894  -2
  -8   9  15 57.3106 12.8894   1
   7   9  12 32.2479 4.58299  -2
  -7   9  15 32.2479 4.58299   1
   6   9  12 26.7672 35.9798  -2
  -6   9  15 26.7672 35.9798   1
   5   9  13 76.5389 4.41603  -2
  -5   9  15 76.5389 4.41603   1
   4   9  13 43.4933 4.73048  -2
  -4   9  15 43.4933 4.73048   1
   3   9  14 76.5737 5.32513  -2
  -3   9  15 76.5737 5.32513   1
   2   9  14 32.9737 4.01539  -2
  -2   9  15 32.9737 4.01539   1
   1   9  15 42.2417 12.8038  -2
  -1   9  15 42.2417 12.8038   1
  -1   9  15 48.8251 4.38676   2
   0   9  15 3.85143 3.16979  -2
   0   9  15 3.85143 3.16979   1
  -1   9  15 3.16890 12.4077  -2
   1   9  15 3.16890 12.4077   1
  -2   9  16 147.285 6.41598  -2
   2   9  15 147.285 6.41598   1
  -3   9  16 87.1968 6.10263  -2
   3   9  15 87.1968 6.10263   1
  -4   9  17 125.653 11.6842  -2
   4   9  15 125.653 11.6842   1
  -5   9  17 4.96310 3.99321  -2
   5   9  15 4.96310 3.99321   1
  -6   9  18 84.2685 18.6917  -2
   6   9  15 84.2685 18.6917   1
  -6   9  17 123.000 21.6910  -2
   6   9  15 123.000 21.6910   1
  -7   9  18 117.214 5.96614  -2
   7   9  15 117.214 5.96614   1
  -8   9  18 68.1150 7.88749  -2
   8   9  15 68.1150 7.88749   1
  -9   9  19 -0.8168 7.04999  -2
   9   9  15 -0.8168 7.04999   1
   9   9  15 17.6453 9.97725   1
 -10   9  19 24.5073 6.75929  -2
  10   9  15 24.5073 6.75929   1
  11  10  10 42.0799 14.8152  -2
 -11  10  15 42.0799 14.8152   1
  10  10  11 18.3524 4.97090  -2
 -10  10  15 18.3524 4.97090   1
   9  10  11 16.7173 4.47073  -2
  -9  10  15 16.7173 4.47073   1
   8  10  12 91.0183 14.0784  -2
  -8  10  15 91.0183 14.0784   1
   7  10  12 83.4549 5.30028  -2
  -7  10  15 83.4549 5.30028   1
   6  10  12 43.3904 34.7348  -2
  -6  10  15 43.3904 34.7348   1
   5  10  13 91.6731 5.85903  -2
  -5  10  15 91.6731 5.85903   1
   4  10  13 57.7848 5.92590  -2
  -4  10  15 57.7848 5.92590   1
   3  10  14 71.8195 5.26566  -2
  -3  10  15 71.8195 5.26566   1
   2  10  14 108.258 5.57154  -2
  -2  10  15 108.258 5.57154   1
  -1  10  15 2.33294 1.52748   2
   1  10  15 26.0123 9.53780  -2
  -1  10  15 26.0123 9.53780   1
   0  10  15 22.9592 3.23519  -2
   0  10  15 22.9592 3.23519   1
  -1  10  15 75.3038 15.3272  -2
   1  10  15 75.3038 15.3272   1
  -2  10  16 60.8240 8.10001  -2
   2  10  15 60.8240 8.10001   1
  -3  10  16 28.5346 9.34638  -2
   3  10  15 28.5346 9.34638   1
  -4  10  17 14.0267 5.65153  -2
   4  10  15 14.0267 5.65153   1
  -5  10  17 48.6574 5.11039  -2
   5  10  15 48.6574 5.11039   1
  -6  10  18 75.2334 18.3314  -2
   6  10  15 75.2334 18.3314   1
  -7  10  18 3.89580 3.19592  -2
   7  10  15 3.89580 3.19592   1
  -8  10  18 14.2857 6.37504  -2
   8  10  15 14.2857 6.37504   1
  -9  10  19 22.4536 7.21846  -2
   9  10  15 22.4536 7.21846   1
  10  11  11 13.9730 6.09913  -2
 -10  11  15 13.9730 6.09913   1
   9  11  11 15.0795 4.45717  -2
  -9  11  15 15.0795 4.45717   1
   8  11  12 35.9114 11.3529  -2
  -8  11  15 35.9114 11.3529   1
   7  11  12 33.2558 4.21689  -2
  -7  11  15 33.2558 4.21689   1
   5  11  13 30.4043 4.78089  -2
  -5  11  15 30.4043 4.78089   1
   4  11  13 6.30725 11.1987  -2
  -4  11  15 6.30725 11.1987   1
   3  11  14 70.1365 6.18792  -2
  -3  11  15 70.1365 6.18792   1
   2  11  14 116.561 9.28472  -2
  -2  11  15 116.561 9.28472   1
  -1  11  15 4.99791 18.3187   1
  -1  11  15 -4.1699 22.3400   2
   0  11  15 2.27622 4.72846  -2
   0  11  15 2.27622 4.72846   1
   1  11  15 65.3180 25.9311   2
   1  11  15 118.370 39.5575   1
  -2  11  16 40.7731 4.93254  -2
   2  11  15 40.7731 4.93254   1
  -3  11  16 28.6007 5.49330  -2
   3  11  15 28.6007 5.49330   1
  -4  11  17 35.8728 6.52630  -2
   4  11  15 35.8728 6.52630   1
  -5  11  17 8.24049 4.12760  -2
   5  11  15 8.24049 4.12760   1
  -6  11  17 39.6285 16.7580  -2
   6  11  15 39.6285 16.7580   1
  -7  11  18 8.69172 3.31687  -2
   7  11  15 8.69172 3.31687   1
   9  12  11 13.4471 4.70493  -2
  -9  12  15 13.4471 4.70493   1
   8  12  12 22.3749 17.1746  -2
  -8  12  15 22.3749 17.1746   1
   7  12  12 12.3032 3.59748  -2
  -7  12  15 12.3032 3.59748   1
   5  12  13 181.776 8.29237  -2
  -5  12  15 181.776 8.29237   1
   4  12  13 18.3930 5.10277  -2
  -4  12  15 18.3930 5.10277   1
   3  12  14 52.0667 4.99654  -2
  -3  12  15 52.0667 4.99654   1
   2  12  14 37.0807 4.50118  -2
  -2  12  15 37.0807 4.50118   1
   1  12  15 135.961 13.9965  -2
  -1  12  15 135.961 13.9965   1
   0  12  15 -1.0580 2.91008  -2
   0  12  15 -1.0580 2.91008   1
  -1  12  15 172.580 24.8670  -2
  -1  12  16 172.580 24.8670  -2
   1  12  15 172.580 24.8670   1
  -2  12  16 24.8593 4.56499  -2
   2  12  15 24.8593 4.56499   1
  -3  12  16 4.89953 5.25009  -2
   3  12  15 4.89953 5.25009   1
  -4  12  17 11.0854 5.85852  -2
   4  12  15 11.0854 5.85852   1
  -5  12  17 128.187 7.82923  -2
   5  12  15 128.187 7.82923   1
  -6  12  17 6.92058 17.5511  -2
   6  12  15 6.92058 17.5511   1
  -7  12  18 13.0724 7.64415  -2
   7  12  15 13.0724 7.64415   1
   8  13  12 -17.068 13.1152  -2
  -8  13  15 -17.068 13.1152   1
   7  13  12 1.11027 3.35036  -2
  -7  13  15 1.11027 3.35036   1
   5  13  13 138.587 6.43560  -2
  -5  13  15 138.587 6.43560   1
   4  13  13 19.1051 5.42781  -2
  -4  13  15 19.1051 5.42781   1
   3  13  14 22.7601 4.63846  -2
  -3  13  15 22.7601 4.63846   1
   2  13  14 52.0453 4.94194  -2
  -2  13  15 52.0453 4.94194   1
   1  13  15 59.0969 11.9707  -2
  -1  13  15 59.0969 11.9707   1
   0  13  15 11.9756 3.42234  -2
   0  13  15 11.9756 3.42234   1
  -1  13  15 106.744 23.6904  -2
  -1  13  16 106.744 23.6904  -2
   1  13  15 106.744 23.6904   1
  -2  13  16 19.2736 4.76446  -2
   2  13  15 19.2736 4.76446   1
  -3  13  16 19.2178 5.21327  -2
   3  13  15 19.2178 5.21327   1
  -4  13  17 3.38725 6.19395  -2
   4  13  15 3.38725 6.19395   1
  -5  13  17 45.5434 6.56059  -2
   5  13  15 45.5434 6.56059   1
   6  14  13 77.3177 17.3236  -2
  -6  14  15 77.3177 17.3236   1
   5  14  13 38.5162 6.89210  -2
  -5  14  15 38.5162 6.89210   1
   4  14  13 33.4913 5.32446  -2
  -4  14  15 33.4913 5.32446   1
   3  14  14 10.2842 5.20394  -2
  -3  14  15 10.2842 5.20394   1
   2  14  14 4.69871 4.77725  -2
  -2  14  15 4.69871 4.77725   1
   1  14  15 22.9840 10.4482  -2
  -1  14  15 22.9840 10.4482   1
   0  14  15 0.25606 2.91295  -2
   0  14  15 0.25606 2.91295   1
  -1  14  15 9.12180 14.9485  -2
   1  14  15 9.12180 14.9485   1
  -2  14  16 3.14026 4.22298  -2
   2  14  15 3.14026 4.22298   1
  -3  14  16 27.0727 14.0217  -2
   3  14  15 27.0727 14.0217   1
   4  15  13 -8.2186 13.8310  -2
  -4  15  15 -8.2186 13.8310   1
   3  15  14 22.2263 11.4789  -2
  -3  15  15 22.2263 11.4789   1
   2  15  14 46.1933 8.37421  -2
  -2  15  15 46.1933 8.37421   1
   0  15  15 -0.9973 3.89918  -2
   0  15  15 -0.9973 3.89918   1
   2  15  15 29.4705 3.91882   1
   2  15  15 39.4021 5.75859   2
  -2  15  16 41.1053 12.5373  -2
   2  15  15 41.1053 12.5373   1
  14   0  10 63.1142 11.2410  -2
 -14   0  16 63.1142 11.2410   1
  12   0  11 1.18431 4.14860  -2
 -12   0  16 1.18431 4.14860   1
  11   0  11 11.2909 5.72332  -2
 -11   0  16 11.2909 5.72332   1
  10   0  12 67.8513 7.05608  -2
 -10   0  16 67.8513 7.05608   1
   9   0  12 -6.5673 6.00987  -2
  -9   0  16 -6.5673 6.00987   1
   8   0  13 116.107 10.9921  -2
  -8   0  16 116.107 10.9921   1
   7   0  13 153.844 8.41115  -2
  -7   0  16 153.844 8.41115   1
   6   0  13 114.526 14.0176  -2
  -6   0  16 114.526 14.0176   1
   5   0  14 -0.8598 3.21208  -2
  -5   0  16 -0.8598 3.21208   1
   4   0  14 360.282 25.8944  -2
  -4   0  16 360.282 25.8944   1
   3   0  15 402.958 17.2414  -2
  -3   0  16 402.958 17.2414   1
   2   0  15 158.549 6.89880  -2
  -2   0  16 158.549 6.89880   1
   1   0  16 9.05592 32.4992  -2
  -1   0  16 9.05592 32.4992   1
   0   0  16 83.7959 5.06725  -2
   0   0  16 83.7959 5.06725   1
  -1   0  16 -1.3597 5.97896  -2
   1   0  16 -1.3597 5.97896   1
  -2   0  17 81.7199 6.29961  -2
   2   0  16 81.7199 6.29961   1
  -3   0  17 15.3219 4.69524  -2
   3   0  16 15.3219 4.69524   1
  -4   0  18 328.001 14.3585  -2
   4   0  16 328.001 14.3585   1
  -5   0  18 -0.8839 5.19936  -2
   5   0  16 -0.8839 5.19936   1
  -6   0  19 48.6998 13.1022  -2
   6   0  16 48.6998 13.1022   1
  -6   0  18 188.519 24.1802  -2
   6   0  16 188.519 24.1802   1
  -7   0  19 26.1416 4.94577  -2
   7   0  16 26.1416 4.94577   1
  -8   0  19 124.036 10.1792  -2
   8   0  16 124.036 10.1792   1
  -9   0  20 -2.5674 5.41147  -2
   9   0  16 -2.5674 5.41147   1
 -10   0  20 137.857 9.77760  -2
  10   0  16 137.857 9.77760   1
 -11   0  21 42.8859 7.82477  -2
  11   0  16 42.8859 7.82477   1
 -11   0  20 4.40713 14.8723  -2
  11   0  16 4.40713 14.8723   1
 -12   0  21 18.4893 10.4655  -2
  12   0  16 18.4893 10.4655   1
  14   1  10 1.88639 5.38667  -2
 -14   1  16 1.88639 5.38667   1
  12   1  11 105.870 5.33496  -2
 -12   1  16 105.870 5.33496   1
  11   1  11 18.0034 4.46664  -2
 -11   1  16 18.0034 4.46664   1
  10   1  12 76.1367 6.21011  -2
 -10   1  16 76.1367 6.21011   1
   9   1  12 2.34548 3.26912  -2
  -9   1  16 2.34548 3.26912   1
   8   1  13 166.374 10.8418  -2
  -8   1  16 166.374 10.8418   1
   7   1  13 34.3907 2.73205  -2
  -7   1  16 34.3907 2.73205   1
   6   1  13 224.936 15.0446  -2
  -6   1  16 224.936 15.0446   1
   5   1  14 117.877 4.08021  -2
  -5   1  16 117.877 4.08021   1
   4   1  14 28.0341 2.24701  -2
  -4   1  16 28.0341 2.24701   1
   3   1  15 3.88084 2.14682  -2
  -3   1  16 3.88084 2.14682   1
   2   1  15 218.414 7.03759  -2
  -2   1  16 218.414 7.03759   1
   1   1  16 89.3378 8.54862  -2
  -1   1  16 89.3378 8.54862   1
   0   1  16 10.8600 1.74584  -2
   0   1  16 10.8600 1.74584   1
  -1   1  16 80.7486 13.1973  -2
   1   1  16 80.7486 13.1973   1
  -2   1  17 443.510 13.8441  -2
   2   1  16 443.510 13.8441   1
  -3   1  17 336.440 11.2101  -2
   3   1  16 336.440 11.2101   1
  -4   1  18 78.9516 5.21603  -2
   4   1  16 78.9516 5.21603   1
  -5   1  18 33.4756 3.51612  -2
   5   1  16 33.4756 3.51612   1
  -6   1  19 285.763 19.6843  -2
   6   1  16 285.763 19.6843   1
  -6   1  18 275.392 22.1636  -2
   6   1  16 275.392 22.1636   1
  -7   1  19 36.2077 2.86290  -2
   7   1  16 36.2077 2.86290   1
  -8   1  19 9.55496 5.28010  -2
   8   1  16 9.55496 5.28010   1
  -9   1  20 46.0308 4.58568  -2
   9   1  16 46.0308 4.58568   1
 -10   1  20 64.5861 4.59481  -2
  10   1  16 64.5861 4.59481   1
 -11   1  20 58.6544 13.4775  -2
  11   1  16 58.6544 13.4775   1
 -11   1  21 31.4462 8.32415  -2
  11   1  16 31.4462 8.32415   1
  11   1  16 8.56825 9.79383   1
 -12   1  21 1.57844 4.74671  -2
  12   1  16 1.57844 4.74671   1
  14   2  10 30.1055 5.54097  -2
 -14   2  16 30.1055 5.54097   1
  13   2  10 67.5596 12.7501  -2
 -13   2  16 67.5596 12.7501   1
  12   2  11 3.29909 3.55031  -2
 -12   2  16 3.29909 3.55031   1
  11   2  11 -0.6372 3.96455  -2
 -11   2  16 -0.6372 3.96455   1
  10   2  12 58.9913 5.66865  -2
 -10   2  16 58.9913 5.66865   1
   9   2  12 281.918 10.4445  -2
  -9   2  16 281.918 10.4445   1
   8   2  13 59.7332 7.23332  -2
  -8   2  16 59.7332 7.23332   1
   7   2  13 16.4064 2.40063  -2
  -7   2  16 16.4064 2.40063   1
   6   2  13 217.382 10.7017  -2
  -6   2  16 217.382 10.7017   1
   5   2  14 149.867 5.04595  -2
  -5   2  16 149.867 5.04595   1
   4   2  14 197.802 10.1432  -2
  -4   2  16 197.802 10.1432   1
   3   2  15 58.2322 4.26868  -2
  -3   2  16 58.2322 4.26868   1
   2   2  15 33.2304 3.34225  -2
  -2   2  16 33.2304 3.34225   1
   1   2  16 129.418 27.5805  -2
  -1   2  16 129.418 27.5805   1
   0   2  16 49.2456 2.33890  -2
   0   2  16 49.2456 2.33890   1
  -1   2  16 148.212 12.5575  -2
   1   2  16 148.212 12.5575   1
  -2   2  17 203.963 9.50673  -2
   2   2  16 203.963 9.50673   1
  -3   2  17 159.236 7.06150  -2
   3   2  16 159.236 7.06150   1
  -4   2  18 14.8198 3.71796  -2
   4   2  16 14.8198 3.71796   1
  -5   2  18 37.4190 3.63495  -2
   5   2  16 37.4190 3.63495   1
  -6   2  19 162.383 13.1527  -2
   6   2  16 162.383 13.1527   1
  -6   2  18 32.7606 9.89354  -2
   6   2  16 32.7606 9.89354   1
  -7   2  19 62.1731 3.21890  -2
   7   2  16 62.1731 3.21890   1
  -8   2  19 9.27393 13.9384  -2
  -8   2  20 9.27393 13.9384  -2
   8   2  16 9.27393 13.9384   1
  -8   2  19 14.6025 4.62900  -2
   8   2  16 14.6025 4.62900   1
  -9   2  20 -2.5162 6.27443  -2
   9   2  16 -2.5162 6.27443   1
 -10   2  20 13.1228 3.48461  -2
  10   2  16 13.1228 3.48461   1
 -11   2  21 7.58623 6.22343  -2
  11   2  16 7.58623 6.22343   1
 -11   2  20 13.1480 11.9028  -2
  11   2  16 13.1480 11.9028   1
 -12   2  21 11.3939 5.49139  -2
  12   2  16 11.3939 5.49139   1
  14   3  10 -13.129 8.24094  -2
 -14   3  16 -13.129 8.24094   1
  12   3  11 7.35999 3.57658  -2
 -12   3  16 7.35999 3.57658   1
  11   3  11 38.9857 4.92780  -2
 -11   3  16 38.9857 4.92780   1
  10   3  12 39.7881 5.46111  -2
 -10   3  16 39.7881 5.46111   1
   9   3  12 22.2169 3.30322  -2
  -9   3  16 22.2169 3.30322   1
   8   3  13 56.6615 5.53332  -2
  -8   3  16 56.6615 5.53332   1
   7   3  13 108.539 5.23208  -2
  -7   3  16 108.539 5.23208   1
   6   3  13 68.2894 8.20368  -2
  -6   3  16 68.2894 8.20368   1
  -6   3  16 2.31204 2.07617   1
   5   3  14 143.640 5.52968  -2
  -5   3  16 143.640 5.52968   1
   4   3  14 77.2416 6.25474  -2
  -4   3  16 77.2416 6.25474   1
   3   3  15 319.741 10.0028  -2
  -3   3  16 319.741 10.0028   1
   2   3  15 172.210 7.38455  -2
  -2   3  16 172.210 7.38455   1
   1   3  16 402.965 34.8588  -2
  -1   3  16 402.965 34.8588   1
   1   3  15 144.069 18.2476  -2
  -1   3  16 144.069 18.2476   1
   0   3  16 -2.1807 1.71757  -2
   0   3  16 -2.1807 1.71757   1
  -1   3  16 357.599 17.7879  -2
   1   3  16 357.599 17.7879   1
  -2   3  17 136.847 5.15657  -2
   2   3  16 136.847 5.15657   1
  -3   3  17 15.7314 3.02953  -2
   3   3  16 15.7314 3.02953   1
  -4   3  18 84.7079 5.13262  -2
   4   3  16 84.7079 5.13262   1
  -4   3  17 436.895 42.2792  -2
   4   3  16 436.895 42.2792   1
  -5   3  18 220.711 7.89978  -2
   5   3  16 220.711 7.89978   1
  -6   3  18 17.7831 9.66805  -2
   6   3  16 17.7831 9.66805   1
  -6   3  19 100.469 17.0183  -2
   6   3  16 100.469 17.0183   1
  -7   3  19 79.5546 4.03375  -2
   7   3  16 79.5546 4.03375   1
  -8   3  19 258.567 13.5412  -2
   8   3  16 258.567 13.5412   1
  -8   3  19 294.516 32.2282  -2
  -8   3  20 294.516 32.2282  -2
   8   3  16 294.516 32.2282   1
  -9   3  20 173.314 8.41484  -2
   9   3  16 173.314 8.41484   1
 -10   3  20 35.8737 5.45940  -2
  10   3  16 35.8737 5.45940   1
 -11   3  21 50.1248 8.48977  -2
  11   3  16 50.1248 8.48977   1
 -11   3  20 128.821 16.5149  -2
  11   3  16 128.821 16.5149   1
 -13   4  16 11.4058 8.74714   2
  12   4  11 15.3559 3.70400  -2
 -12   4  16 15.3559 3.70400   1
  11   4  11 13.0953 4.14665  -2
 -11   4  16 13.0953 4.14665   1
  10   4  12 142.422 6.98531  -2
 -10   4  16 142.422 6.98531   1
   9   4  12 121.445 5.70074  -2
  -9   4  16 121.445 5.70074   1
   8   4  13 122.860 7.32743  -2
  -8   4  16 122.860 7.32743   1
   7   4  13 12.5316 2.32574  -2
  -7   4  16 12.5316 2.32574   1
   6   4  13 416.799 31.7855  -2
  -6   4  16 416.799 31.7855   1
   5   4  14 493.841 15.2635  -2
  -5   4  16 493.841 15.2635   1
   4   4  14 165.781 8.14110  -2
  -4   4  16 165.781 8.14110   1
   3   4  15 292.343 9.28456  -2
  -3   4  16 292.343 9.28456   1
   2   4  15 548.646 16.9915  -2
  -2   4  16 548.646 16.9915   1
   1   4  16 515.157 24.3810  -2
  -1   4  16 515.157 24.3810   1
   1   4  15 514.941 45.9637  -2
  -1   4  16 514.941 45.9637   1
   0   4  16 714.949 19.7985  -2
   0   4  16 714.949 19.7985   1
  -1   4  16 554.500 32.2484  -2
   1   4  16 554.500 32.2484   1
  -2   4  17 168.971 6.43747  -2
   2   4  16 168.971 6.43747   1
  -3   4  17 93.9576 4.97438  -2
   3   4  16 93.9576 4.97438   1
  -4   4  18 329.959 13.3624  -2
   4   4  16 329.959 13.3624   1
  -5   4  18 51.9009 3.13357  -2
   5   4  16 51.9009 3.13357   1
  -6   4  18 86.4746 12.9509  -2
   6   4  16 86.4746 12.9509   1
  -6   4  19 23.6867 12.0148  -2
   6   4  16 23.6867 12.0148   1
  -7   4  19 33.4506 3.68035  -2
   7   4  16 33.4506 3.68035   1
  -8   4  20 30.2923 13.6936  -2
   8   4  16 30.2923 13.6936   1
  -8   4  19 21.7981 17.0675  -2
   8   4  16 21.7981 17.0675   1
  -9   4  20 6.22250 4.62531  -2
   9   4  16 6.22250 4.62531   1
  -9   4  19 88.3441 21.7470  -2
   9   4  16 88.3441 21.7470   1
 -10   4  20 -0.8229 4.85578  -2
  10   4  16 -0.8229 4.85578   1
 -11   4  20 17.2197 11.9642  -2
  11   4  16 17.2197 11.9642   1
 -11   4  21 30.8503 8.96314  -2
  11   4  16 30.8503 8.96314   1
  12   5  11 131.146 8.07360  -2
 -12   5  16 131.146 8.07360   1
  11   5  11 55.5209 7.65026  -2
 -11   5  16 55.5209 7.65026   1
  10   5  12 14.7124 2.72586  -2
 -10   5  16 14.7124 2.72586   1
   9   5  12 100.869 5.45239  -2
  -9   5  16 100.869 5.45239   1
   8   5  13 65.8310 8.14079  -2
  -8   5  16 65.8310 8.14079   1
   7   5  13 261.019 8.35339  -2
  -7   5  16 261.019 8.35339   1
   6   5  13 262.058 25.6849  -2
  -6   5  16 262.058 25.6849   1
   5   5  14 42.7976 3.44804  -2
  -5   5  16 42.7976 3.44804   1
   4   5  14 110.504 6.23164  -2
  -4   5  16 110.504 6.23164   1
   3   5  15 203.089 7.19386  -2
  -3   5  16 203.089 7.19386   1
   2   5  15 188.866 6.96157  -2
  -2   5  16 188.866 6.96157   1
   1   5  16 19.6412 8.04683  -2
  -1   5  16 19.6412 8.04683   1
   0   5  16 109.659 4.71281  -2
   0   5  16 109.659 4.71281   1
  -1   5  16 43.0746 8.02422  -2
   1   5  16 43.0746 8.02422   1
  -2   5  17 85.6861 3.71906  -2
   2   5  16 85.6861 3.71906   1
  -3   5  17 104.728 4.66092  -2
   3   5  16 104.728 4.66092   1
  -4   5  18 55.2856 4.24444  -2
   4   5  16 55.2856 4.24444   1
  -5   5  18 118.954 5.26708  -2
   5   5  16 118.954 5.26708   1
  -6   5  19 50.0816 15.5313  -2
   6   5  16 50.0816 15.5313   1
  -6   5  18 45.6423 11.9174  -2
   6   5  16 45.6423 11.9174   1
  -7   5  19 23.0073 3.39013  -2
   7   5  16 23.0073 3.39013   1
  -8   5  19 69.7432 8.44639  -2
   8   5  16 69.7432 8.44639   1
  -9   5  19 45.7944 12.7111  -2
   9   5  16 45.7944 12.7111   1
  -9   5  20 30.4500 5.60183  -2
   9   5  16 30.4500 5.60183   1
 -10   5  20 28.6560 4.82316  -2
  10   5  16 28.6560 4.82316   1
 -11   5  21 75.6382 18.4211  -2
 -11   5  20 75.6382 18.4211  -2
  11   5  16 75.6382 18.4211   1
 -11   5  21 17.5363 13.1937  -2
  11   5  16 17.5363 13.1937   1
 -13   6  16 -0.0455 7.60829   2
  12   6  11 37.1230 4.54651  -2
 -12   6  16 37.1230 4.54651   1
  11   6  11 61.2352 9.19208  -2
 -11   6  16 61.2352 9.19208   1
  10   6  12 17.8308 4.88298  -2
 -10   6  16 17.8308 4.88298   1
   9   6  12 53.8192 7.42356  -2
  -9   6  16 53.8192 7.42356   1
   8   6  13 128.746 15.4316  -2
  -8   6  16 128.746 15.4316   1
   7   6  13 19.9856 2.86592  -2
  -7   6  16 19.9856 2.86592   1
   6   6  13 2.01134 10.1958  -2
  -6   6  16 2.01134 10.1958   1
   5   6  14 31.3449 2.46017  -2
  -5   6  16 31.3449 2.46017   1
   4   6  14 128.858 7.51638  -2
  -4   6  16 128.858 7.51638   1
   3   6  15 160.969 6.61867  -2
  -3   6  16 160.969 6.61867   1
   2   6  15 117.832 5.64771  -2
  -2   6  16 117.832 5.64771   1
   1   6  16 223.899 20.9669  -2
  -1   6  16 223.899 20.9669   1
   0   6  16 554.129 19.2695  -2
   0   6  16 554.129 19.2695   1
  -1   6  16 221.748 12.5982  -2
   1   6  16 221.748 12.5982   1
  -2   6  17 172.306 5.21752  -2
   2   6  16 172.306 5.21752   1
  -3   6  17 234.006 9.94376  -2
   3   6  16 234.006 9.94376   1
  -4   6  18 452.229 18.3715  -2
   4   6  16 452.229 18.3715   1
  -5   6  18 61.5791 4.03867  -2
   5   6  16 61.5791 4.03867   1
  -6   6  19 140.598 19.3634  -2
   6   6  16 140.598 19.3634   1
  -7   6  19 155.361 7.66998  -2
   7   6  16 155.361 7.66998   1
  -8   6  19 46.9950 6.92379  -2
   8   6  16 46.9950 6.92379   1
  -9   6  19 196.962 29.7887  -2
   9   6  16 196.962 29.7887   1
  -9   6  20 39.5806 6.00638  -2
   9   6  16 39.5806 6.00638   1
 -10   6  20 103.234 7.36903  -2
  10   6  16 103.234 7.36903   1
  11   6  16 2.50606 2.95754   1
  11   6  16 3.68037 3.14692   2
 -11   6  20 3.44200 15.1331  -2
  11   6  16 3.44200 15.1331   1
  12   7  11 28.7373 5.12879  -2
 -12   7  16 28.7373 5.12879   1
  11   7  11 27.6265 6.34741  -2
 -11   7  16 27.6265 6.34741   1
  10   7  12 90.4132 5.10915  -2
 -10   7  16 90.4132 5.10915   1
   9   7  12 4.81142 4.84987  -2
  -9   7  16 4.81142 4.84987   1
   8   7  13 111.734 15.7162  -2
  -8   7  16 111.734 15.7162   1
   7   7  13 224.825 8.92546  -2
  -7   7  16 224.825 8.92546   1
   6   7  13 35.2957 13.8416  -2
  -6   7  16 35.2957 13.8416   1
   5   7  14 107.484 5.61736  -2
  -5   7  16 107.484 5.61736   1
   4   7  14 215.251 9.45522  -2
  -4   7  16 215.251 9.45522   1
   3   7  15 155.549 6.98498  -2
  -3   7  16 155.549 6.98498   1
   2   7  15 136.101 6.18229  -2
  -2   7  16 136.101 6.18229   1
   1   7  16 153.689 22.3267  -2
  -1   7  16 153.689 22.3267   1
   0   7  16 61.9131 3.96877  -2
   0   7  16 61.9131 3.96877   1
  -1   7  16 227.092 10.9078  -2
   1   7  16 227.092 10.9078   1
  -2   7  17 115.680 4.92478  -2
   2   7  16 115.680 4.92478   1
  -3   7  17 87.9014 4.73586  -2
   3   7  16 87.9014 4.73586   1
  -4   7  18 3.24689 4.75634  -2
   4   7  16 3.24689 4.75634   1
   4   7  16 5.44964 7.98315   1
  -5   7  18 106.984 5.11665  -2
   5   7  16 106.984 5.11665   1
  -6   7  18 0.37288 6.96704  -2
   6   7  16 0.37288 6.96704   1
  -7   7  19 21.7400 3.46667  -2
   7   7  16 21.7400 3.46667   1
  -8   7  19 28.7455 5.77576  -2
   8   7  16 28.7455 5.77576   1
  -9   7  20 6.57600 4.82324  -2
   9   7  16 6.57600 4.82324   1
  -9   7  19 17.4682 18.8500  -2
   9   7  16 17.4682 18.8500   1
 -10   7  20 -5.2375 5.73332  -2
  10   7  16 -5.2375 5.73332   1
  12   8  11 -3.5182 6.55273  -2
 -12   8  16 -3.5182 6.55273   1
  11   8  11 22.9623 11.4283  -2
 -11   8  16 22.9623 11.4283   1
  10   8  12 0.72982 4.53431  -2
 -10   8  16 0.72982 4.53431   1
   9   8  12 92.7943 6.55218  -2
  -9   8  16 92.7943 6.55218   1
   8   8  13 29.4060 10.3315  -2
  -8   8  16 29.4060 10.3315   1
   7   8  13 23.4701 4.32702  -2
  -7   8  16 23.4701 4.32702   1
   6   8  13 23.0591 35.2211  -2
  -6   8  16 23.0591 35.2211   1
   5   8  14 224.954 8.06737  -2
  -5   8  16 224.954 8.06737   1
   4   8  14 69.5500 4.57062  -2
  -4   8  16 69.5500 4.57062   1
   3   8  15 37.3735 3.78649  -2
  -3   8  16 37.3735 3.78649   1
   2   8  15 40.4532 4.14021  -2
  -2   8  16 40.4532 4.14021   1
   1   8  16 71.6678 13.5115  -2
  -1   8  16 71.6678 13.5115   1
   0   8  16 10.3771 2.07267  -2
   0   8  16 10.3771 2.07267   1
  -1   8  16 74.8146 10.3418  -2
   1   8  16 74.8146 10.3418   1
  -2   8  17 -4.0921 3.88859  -2
   2   8  16 -4.0921 3.88859   1
   2   8  16 5.05489 1.59481   1
  -3   8  17 20.9414 4.55704  -2
   3   8  16 20.9414 4.55704   1
  -4   8  18 33.0060 5.95695  -2
   4   8  16 33.0060 5.95695   1
  -5   8  18 -5.8078 3.32428  -2
   5   8  16 -5.8078 3.32428   1
  -6   8  18 52.8818 7.62140  -2
   6   8  16 52.8818 7.62140   1
  -6   8  19 3.90664 14.7690  -2
   6   8  16 3.90664 14.7690   1
  -7   8  19 7.99174 3.17242  -2
   7   8  16 7.99174 3.17242   1
  -8   8  19 23.9412 7.59990  -2
   8   8  16 23.9412 7.59990   1
  -9   8  20 44.4524 5.81901  -2
   9   8  16 44.4524 5.81901   1
  -9   8  19 53.8355 20.4459  -2
   9   8  16 53.8355 20.4459   1
 -10   8  20 2.32489 6.18679  -2
  10   8  16 2.32489 6.18679   1
  11   9  11 13.1190 13.7658  -2
 -11   9  16 13.1190 13.7658   1
  10   9  12 32.9460 4.79015  -2
 -10   9  16 32.9460 4.79015   1
   9   9  12 1.10054 3.90751  -2
  -9   9  16 1.10054 3.90751   1
   8   9  13 150.084 16.6734  -2
  -8   9  16 150.084 16.6734   1
   7   9  13 73.7527 5.10686  -2
  -7   9  16 73.7527 5.10686   1
   6   9  13 -19.268 36.7205  -2
  -6   9  16 -19.268 36.7205   1
   5   9  14 19.4056 3.50736  -2
  -5   9  16 19.4056 3.50736   1
   4   9  14 67.0413 5.56337  -2
  -4   9  16 67.0413 5.56337   1
   3   9  15 57.9100 4.97789  -2
  -3   9  16 57.9100 4.97789   1
   2   9  15 183.443 7.89695  -2
  -2   9  16 183.443 7.89695   1
   1   9  16 90.5132 17.6403  -2
  -1   9  16 90.5132 17.6403   1
   0   9  16 27.8513 3.78881  -2
   0   9  16 27.8513 3.78881   1
  -1   9  16 114.845 18.4662  -2
   1   9  16 114.845 18.4662   1
  -2   9  17 231.723 9.79898  -2
   2   9  16 231.723 9.79898   1
  -3   9  17 177.176 12.3442  -2
   3   9  16 177.176 12.3442   1
  -4   9  18 16.1738 6.97813  -2
   4   9  16 16.1738 6.97813   1
  -5   9  18 99.8793 5.46408  -2
   5   9  16 99.8793 5.46408   1
  -6   9  18 41.7716 18.7503  -2
   6   9  16 41.7716 18.7503   1
  -6   9  19 146.790 22.9778  -2
   6   9  16 146.790 22.9778   1
  -7   9  19 69.5987 4.66744  -2
   7   9  16 69.5987 4.66744   1
  -8   9  19 90.3552 8.63574  -2
   8   9  16 90.3552 8.63574   1
  -9   9  20 30.6087 8.10491  -2
   9   9  16 30.6087 8.10491   1
  10  10  12 63.3926 6.64781  -2
 -10  10  16 63.3926 6.64781   1
   9  10  12 7.70080 4.34690  -2
  -9  10  16 7.70080 4.34690   1
   8  10  13 64.0132 16.9351  -2
  -8  10  16 64.0132 16.9351   1
   7  10  13 103.344 5.74182  -2
  -7  10  16 103.344 5.74182   1
   6  10  13 -20.196 20.9812  -2
  -6  10  16 -20.196 20.9812   1
   5  10  14 21.8640 3.56383  -2
  -5  10  16 21.8640 3.56383   1
   4  10  14 50.6928 8.49598  -2
  -4  10  16 50.6928 8.49598   1
   3  10  15 24.3926 4.27393  -2
  -3  10  16 24.3926 4.27393   1
   2  10  15 48.4070 4.53863  -2
  -2  10  16 48.4070 4.53863   1
   1  10  16 16.4654 12.3164  -2
  -1  10  16 16.4654 12.3164   1
   0  10  16 42.0914 5.68204  -2
   0  10  16 42.0914 5.68204   1
  -1  10  16 7.81449 42.3155  -2
   1  10  16 7.81449 42.3155   1
  -2  10  17 16.7066 5.26454  -2
   2  10  16 16.7066 5.26454   1
  -3  10  17 6.46928 5.46250  -2
   3  10  16 6.46928 5.46250   1
  -4  10  18 48.0181 6.04232  -2
   4  10  16 48.0181 6.04232   1
  -5  10  18 61.6705 5.32664  -2
   5  10  16 61.6705 5.32664   1
  -6  10  19 24.5011 15.5654  -2
   6  10  16 24.5011 15.5654   1
  -6  10  18 47.1741 19.8556  -2
   6  10  16 47.1741 19.8556   1
  -7  10  19 38.9856 4.02751  -2
   7  10  16 38.9856 4.02751   1
 -10  11  16 15.1127 4.18600   1
 -10  11  16 7.78526 2.62536   2
   9  11  12 0.13661 5.57037  -2
  -9  11  16 0.13661 5.57037   1
   8  11  13 19.4382 10.5586  -2
  -8  11  16 19.4382 10.5586   1
   7  11  13 40.4626 3.79406  -2
  -7  11  16 40.4626 3.79406   1
   5  11  14 9.01366 4.10627  -2
  -5  11  16 9.01366 4.10627   1
   4  11  14 16.0757 6.97808  -2
  -4  11  16 16.0757 6.97808   1
   3  11  15 24.5462 4.32445  -2
  -3  11  16 24.5462 4.32445   1
   2  11  15 44.9769 4.93182  -2
  -2  11  16 44.9769 4.93182   1
   1  11  16 100.809 14.7760  -2
  -1  11  16 100.809 14.7760   1
  -1  11  16 27.3660 27.4822   2
   0  11  16 21.9217 3.58457  -2
   0  11  16 21.9217 3.58457   1
   1  11  16 70.1609 36.5878   1
  -1  11  17 61.5965 15.6890  -2
   1  11  16 61.5965 15.6890   1
  -2  11  17 90.1144 7.41745  -2
   2  11  16 90.1144 7.41745   1
  -3  11  17 105.311 9.08611  -2
   3  11  16 105.311 9.08611   1
  -4  11  18 36.0254 6.52743  -2
   4  11  16 36.0254 6.52743   1
  -5  11  18 0.36131 4.35134  -2
   5  11  16 0.36131 4.35134   1
  -6  11  18 6.42597 17.1452  -2
   6  11  16 6.42597 17.1452   1
  -6  11  19 19.5487 15.5413  -2
   6  11  16 19.5487 15.5413   1
  -7  11  19 28.8139 10.6282  -2
   7  11  16 28.8139 10.6282   1
   9  12  12 -1.2772 5.99698  -2
  -9  12  16 -1.2772 5.99698   1
   8  12  13 18.6783 11.8093  -2
  -8  12  16 18.6783 11.8093   1
   7  12  13 19.1860 3.90865  -2
  -7  12  16 19.1860 3.90865   1
   5  12  14 11.9410 3.84018  -2
  -5  12  16 11.9410 3.84018   1
   4  12  14 181.994 9.78358  -2
  -4  12  16 181.994 9.78358   1
   3  12  15 5.93257 4.06420  -2
  -3  12  16 5.93257 4.06420   1
   2  12  15 14.5860 3.81939  -2
  -2  12  16 14.5860 3.81939   1
   1  12  16 12.4164 8.22594  -2
  -1  12  16 12.4164 8.22594   1
   0  12  16 153.734 7.55551  -2
   0  12  16 153.734 7.55551   1
  -1  12  17 3.71836 12.9865  -2
   1  12  16 3.71836 12.9865   1
  -2  12  17 -0.0717 4.31970  -2
   2  12  16 -0.0717 4.31970   1
  -3  12  17 41.3977 5.93495  -2
   3  12  16 41.3977 5.93495   1
  -4  12  18 148.088 10.7070  -2
   4  12  16 148.088 10.7070   1
  -5  12  18 13.8930 4.74486  -2
   5  12  16 13.8930 4.74486   1
   7  13  13 6.97659 4.00935  -2
  -7  13  16 6.97659 4.00935   1
   5  13  14 9.23352 4.26195  -2
  -5  13  16 9.23352 4.26195   1
   4  13  14 110.429 7.68882  -2
  -4  13  16 110.429 7.68882   1
   3  13  15 41.5743 5.09319  -2
  -3  13  16 41.5743 5.09319   1
   2  13  15 25.3743 4.33083  -2
  -2  13  16 25.3743 4.33083   1
   1  13  16 15.2079 15.6115  -2
  -1  13  16 15.2079 15.6115   1
   0  13  16 144.065 7.34449  -2
   0  13  16 144.065 7.34449   1
  -1  13  17 53.7039 18.1526  -2
   1  13  16 53.7039 18.1526   1
  -2  13  17 71.8572 5.88971  -2
   2  13  16 71.8572 5.88971   1
  -3  13  17 28.3077 5.47637  -2
   3  13  16 28.3077 5.47637   1
  -5  13  18 6.58059 9.91733  -2
   5  13  16 6.58059 9.91733   1
   5  14  14 3.33946 5.28997  -2
  -5  14  16 3.33946 5.28997   1
   4  14  14 35.6937 9.92004  -2
  -4  14  16 35.6937 9.92004   1
   3  14  15 36.4817 6.71569  -2
  -3  14  16 36.4817 6.71569   1
   2  14  15 12.8142 4.19052  -2
  -2  14  16 12.8142 4.19052   1
   1  14  16 24.5720 15.6135  -2
  -1  14  16 24.5720 15.6135   1
   0  14  16 1.33586 2.87531  -2
   0  14  16 1.33586 2.87531   1
  -1  14  16 28.6385 14.5316  -2
   1  14  16 28.6385 14.5316   1
  -2  14  17 -16.090 7.16645  -2
   2  14  16 -16.090 7.16645   1
  -3  14  17 8.39084 12.7994  -2
   3  14  16 8.39084 12.7994   1
   2  15  15 41.1648 10.2996  -2
  -2  15  16 41.1648 10.2996   1
  -1  15  16 31.0356 6.58402   1
  -1  15  16 27.4607 6.83125   2
   0  15  16 126.830 18.0497  -2
   0  15  16 126.830 18.0497   1
  12   0  12 45.3687 5.35388  -2
 -12   0  17 45.3687 5.35388   1
  11   0  12 109.700 8.82770  -2
 -11   0  17 109.700 8.82770   1
  10   0  13 18.7531 4.40362  -2
 -10   0  17 18.7531 4.40362   1
   9   0  13 178.079 13.1585  -2
  -9   0  17 178.079 13.1585   1
   8   0  14 183.072 12.9134  -2
  -8   0  17 183.072 12.9134   1
   7   0  14 47.5248 2.53706  -2
  -7   0  17 47.5248 2.53706   1
   6   0  14 -5.1537 5.97711  -2
  -6   0  17 -5.1537 5.97711   1
   5   0  15 85.0380 5.20724  -2
  -5   0  17 85.0380 5.20724   1
   4   0  15 7.17221 5.27731  -2
  -4   0  17 7.17221 5.27731   1
   3   0  16 -0.0022 3.63277  -2
  -3   0  17 -0.0022 3.63277   1
   2   0  16 98.1460 4.85261  -2
  -2   0  17 98.1460 4.85261   1
   1   0  17 373.329 55.0486  -2
  -1   0  17 373.329 55.0486   1
   0   0  17 2.63523 3.23721  -2
   0   0  17 2.63523 3.23721   1
  -1   0  17 403.833 33.6736  -2
   1   0  17 403.833 33.6736   1
  -2   0  18 404.771 16.1178  -2
   2   0  17 404.771 16.1178   1
  -3   0  18 389.941 18.2858  -2
   3   0  17 389.941 18.2858   1
  -4   0  19 -8.3489 6.08700  -2
   4   0  17 -8.3489 6.08700   1
  -5   0  19 573.891 28.1603  -2
   5   0  17 573.891 28.1603   1
  -6   0  19 30.3787 14.6633  -2
   6   0  17 30.3787 14.6633   1
  -6   0  20 308.126 91.5645  -2
   6   0  17 308.126 91.5645   1
  -7   0  20 124.610 7.03446  -2
   7   0  17 124.610 7.03446   1
  -8   0  20 80.5680 8.93653  -2
   8   0  17 80.5680 8.93653   1
  -9   0  21 217.608 13.6298  -2
   9   0  17 217.608 13.6298   1
 -10   0  21 7.03865 5.77525  -2
  10   0  17 7.03865 5.77525   1
 -11   0  21 55.6641 17.2470  -2
  11   0  17 55.6641 17.2470   1
 -11   0  22 34.7449 14.4856  -2
  11   0  17 34.7449 14.4856   1
  12   1  12 40.5478 3.78003  -2
 -12   1  17 40.5478 3.78003   1
  11   1  12 151.068 8.00552  -2
 -11   1  17 151.068 8.00552   1
  10   1  13 25.4972 3.87232  -2
 -10   1  17 25.4972 3.87232   1
   9   1  13 33.6069 3.36564  -2
  -9   1  17 33.6069 3.36564   1
   8   1  14 67.6609 8.01048  -2
  -8   1  17 67.6609 8.01048   1
   7   1  14 291.248 10.1414  -2
  -7   1  17 291.248 10.1414   1
   6   1  14 79.6899 6.77052  -2
  -6   1  17 79.6899 6.77052   1
   5   1  15 39.5793 2.85017  -2
  -5   1  17 39.5793 2.85017   1
   4   1  15 165.129 5.88119  -2
  -4   1  17 165.129 5.88119   1
   3   1  16 404.630 11.8092  -2
  -3   1  17 404.630 11.8092   1
   2   1  16 352.928 10.2143  -2
  -2   1  17 352.928 10.2143   1
   1   1  17 56.0288 26.2745  -2
  -1   1  17 56.0288 26.2745   1
   0   1  17 7.91791 1.87689  -2
   0   1  17 7.91791 1.87689   1
  -1   1  17 93.2414 27.9748  -2
   1   1  17 93.2414 27.9748   1
  -2   1  18 35.3487 3.56368  -2
   2   1  17 35.3487 3.56368   1
  -3   1  18 25.3212 3.45050  -2
   3   1  17 25.3212 3.45050   1
  -4   1  19 95.3819 6.40058  -2
   4   1  17 95.3819 6.40058   1
  -5   1  19 175.670 6.84243  -2
   5   1  17 175.670 6.84243   1
  -6   1  20 97.9814 8.21384  -2
   6   1  17 97.9814 8.21384   1
  -6   1  19 68.1031 15.9339  -2
   6   1  17 68.1031 15.9339   1
  -7   1  20 18.2268 3.02403  -2
   7   1  17 18.2268 3.02403   1
  -8   1  20 7.05219 4.62411  -2
   8   1  17 7.05219 4.62411   1
  -9   1  20 23.1140 20.1152  -2
  -9   1  21 23.1140 20.1152  -2
   9   1  17 23.1140 20.1152   1
  -9   1  21 5.67098 4.29589  -2
   9   1  17 5.67098 4.29589   1
 -10   1  21 12.9742 3.83186  -2
  10   1  17 12.9742 3.83186   1
 -11   1  22 -10.900 9.76910  -2
  11   1  17 -10.900 9.76910   1
 -11   1  21 21.2527 12.0546  -2
  11   1  17 21.2527 12.0546   1
  12   2  12 7.07999 3.24876  -2
 -12   2  17 7.07999 3.24876   1
  11   2  12 24.2270 4.30317  -2
 -11   2  17 24.2270 4.30317   1
  10   2  13 20.6113 4.06449  -2
 -10   2  17 20.6113 4.06449   1
   9   2  13 47.2630 4.22684  -2
  -9   2  17 47.2630 4.22684   1
   8   2  14 31.4913 5.95459  -2
  -8   2  17 31.4913 5.95459   1
   7   2  14 28.6549 2.46058  -2
  -7   2  17 28.6549 2.46058   1
   6   2  14 16.6957 2.34102  -2
  -6   2  17 16.6957 2.34102   1
   5   2  15 87.2550 3.07231  -2
  -5   2  17 87.2550 3.07231   1
   4   2  15 96.2047 6.03723  -2
  -4   2  17 96.2047 6.03723   1
   3   2  16 245.455 8.68774  -2
  -3   2  17 245.455 8.68774   1
   2   2  16 228.107 7.83584  -2
  -2   2  17 228.107 7.83584   1
   1   2  17 9.99444 37.0411  -2
  -1   2  17 9.99444 37.0411   1
   0   2  17 150.261 5.35351  -2
   0   2  17 150.261 5.35351   1
  -1   2  17 51.2343 13.5888  -2
   1   2  17 51.2343 13.5888   1
  -2   2  18 243.721 8.71937  -2
   2   2  17 243.721 8.71937   1
  -3   2  18 163.751 6.38058  -2
   3   2  17 163.751 6.38058   1
  -4   2  19 60.0201 4.91428  -2
   4   2  17 60.0201 4.91428   1
  -5   2  19 20.0400 2.88501  -2
   5   2  17 20.0400 2.88501   1
  -6   2  20 55.8005 9.05397  -2
   6   2  17 55.8005 9.05397   1
  -6   2  19 171.623 22.0436  -2
   6   2  17 171.623 22.0436   1
  -7   2  20 47.2408 3.37257  -2
   7   2  17 47.2408 3.37257   1
   8   2  17 48.2589 10.4941   1
  -8   2  20 27.5229 5.14411  -2
   8   2  17 27.5229 5.14411   1
  -9   2  21 63.3638 4.77044  -2
   9   2  17 63.3638 4.77044   1
  -9   2  20 37.6892 20.6245  -2
  -9   2  21 37.6892 20.6245  -2
   9   2  17 37.6892 20.6245   1
 -10   2  21 33.4933 4.68353  -2
  10   2  17 33.4933 4.68353   1
 -11   2  22 4.52955 7.37588  -2
  11   2  17 4.52955 7.37588   1
 -11   2  21 46.6031 18.1589  -2
  11   2  17 46.6031 18.1589   1
  12   3  12 33.5867 3.72406  -2
 -12   3  17 33.5867 3.72406   1
  11   3  12 8.55839 4.08454  -2
 -11   3  17 8.55839 4.08454   1
  10   3  13 55.0767 4.29209  -2
 -10   3  17 55.0767 4.29209   1
   9   3  13 77.9769 5.00720  -2
  -9   3  17 77.9769 5.00720   1
   8   3  14 151.674 9.71247  -2
  -8   3  17 151.674 9.71247   1
   7   3  14 55.2709 3.44988  -2
  -7   3  17 55.2709 3.44988   1
  -6   3  17 110.745 6.47433   1
   6   3  14 193.400 61.6036  -2
  -6   3  17 193.400 61.6036   1
   5   3  15 20.1994 2.49167  -2
  -5   3  17 20.1994 2.49167   1
   4   3  15 318.548 11.8546  -2
  -4   3  17 318.548 11.8546   1
   3   3  16 32.0852 3.28796  -2
  -3   3  17 32.0852 3.28796   1
   2   3  16 114.779 5.73889  -2
  -2   3  17 114.779 5.73889   1
   1   3  17 172.337 19.5286  -2
  -1   3  17 172.337 19.5286   1
   0   3  17 243.226 7.86725  -2
   0   3  17 243.226 7.86725   1
  -1   3  17 163.807 10.1922  -2
   1   3  17 163.807 10.1922   1
  -2   3  18 167.304 4.94196  -2
   2   3  17 167.304 4.94196   1
  -3   3  18 287.560 9.28148  -2
   3   3  17 287.560 9.28148   1
  -4   3  19 209.857 7.92353  -2
   4   3  17 209.857 7.92353   1
  -4   3  18 204.174 23.6419  -2
   4   3  17 204.174 23.6419   1
  -5   3  19 133.871 5.48246  -2
   5   3  17 133.871 5.48246   1
  -6   3  19 276.737 18.3662  -2
   6   3  17 276.737 18.3662   1
  -6   3  20 125.839 12.7239  -2
   6   3  17 125.839 12.7239   1
  -7   3  20 193.354 7.61282  -2
   7   3  17 193.354 7.61282   1
  -8   3  20 207.650 9.48996  -2
   8   3  17 207.650 9.48996   1
  -8   3  21 279.482 30.1971  -2
   8   3  17 279.482 30.1971   1
  -9   3  21 44.0646 4.78785  -2
   9   3  17 44.0646 4.78785   1
   9   3  17 25.1892 8.87993   1
 -10   3  21 95.2260 5.73833  -2
  10   3  17 95.2260 5.73833   1
 -11   3  22 101.346 10.2073  -2
  11   3  17 101.346 10.2073   1
 -11   3  21 44.0808 20.2117  -2
 -11   3  22 44.0808 20.2117  -2
  11   3  17 44.0808 20.2117   1
  12   4  12 14.9837 4.25290  -2
 -12   4  17 14.9837 4.25290   1
  11   4  12 53.5316 7.61020  -2
 -11   4  17 53.5316 7.61020   1
  10   4  13 87.6656 4.89112  -2
 -10   4  17 87.6656 4.89112   1
   9   4  13 175.835 7.14574  -2
  -9   4  17 175.835 7.14574   1
   8   4  14 73.0546 8.04849  -2
  -8   4  17 73.0546 8.04849   1
   7   4  14 198.061 6.72085  -2
  -7   4  17 198.061 6.72085   1
   6   4  14 202.680 21.3486  -2
  -6   4  17 202.680 21.3486   1
   5   4  15 539.518 16.3633  -2
  -5   4  17 539.518 16.3633   1
   4   4  15 396.518 16.0348  -2
  -4   4  17 396.518 16.0348   1
   3   4  16 94.6429 6.12156  -2
  -3   4  17 94.6429 6.12156   1
   2   4  16 146.510 5.38204  -2
  -2   4  17 146.510 5.38204   1
   1   4  17 265.234 18.2643  -2
  -1   4  17 265.234 18.2643   1
   1   4  16 306.541 29.9370  -2
  -1   4  17 306.541 29.9370   1
   0   4  17 74.7410 4.03822  -2
   0   4  17 74.7410 4.03822   1
  -1   4  17 285.156 18.1966  -2
   1   4  17 285.156 18.1966   1
  -2   4  18 50.7248 2.80839  -2
   2   4  17 50.7248 2.80839   1
  -3   4  18 31.0840 3.26013  -2
   3   4  17 31.0840 3.26013   1
  -4   4  19 10.4075 5.56395  -2
   4   4  17 10.4075 5.56395   1
  -5   4  19 46.5676 4.03813  -2
   5   4  17 46.5676 4.03813   1
  -6   4  20 28.2059 13.8952  -2
   6   4  17 28.2059 13.8952   1
  -6   4  19 31.4819 15.8350  -2
   6   4  17 31.4819 15.8350   1
  -7   4  20 -2.5193 2.79115  -2
   7   4  17 -2.5193 2.79115   1
  -8   4  20 33.0472 8.72728  -2
   8   4  17 33.0472 8.72728   1
  -9   4  21 6.80561 4.63489  -2
   9   4  17 6.80561 4.63489   1
  -9   4  20 18.4820 18.5232  -2
   9   4  17 18.4820 18.5232   1
 -10   4  21 2.09191 3.86742  -2
  10   4  17 2.09191 3.86742   1
 -11   4  21 18.2982 15.3740  -2
  11   4  17 18.2982 15.3740   1
 -11   4  22 45.8995 17.5987  -2
 -11   4  21 45.8995 17.5987  -2
  11   4  17 45.8995 17.5987   1
  11   4  17 4.37238 6.91657   1
 -13   5  17 2.10583 4.63512   2
  12   5  12 77.9495 6.66994  -2
 -12   5  17 77.9495 6.66994   1
  11   5  12 155.213 11.1095  -2
 -11   5  17 155.213 11.1095   1
  10   5  13 58.6151 5.10238  -2
 -10   5  17 58.6151 5.10238   1
   9   5  13 25.6032 4.58867  -2
  -9   5  17 25.6032 4.58867   1
   8   5  14 31.7343 8.01683  -2
  -8   5  17 31.7343 8.01683   1
   7   5  14 89.0622 5.40277  -2
  -7   5  17 89.0622 5.40277   1
   6   5  14 90.8013 15.5828  -2
  -6   5  17 90.8013 15.5828   1
   5   5  15 106.342 6.03103  -2
  -5   5  17 106.342 6.03103   1
   4   5  15 35.4285 4.15565  -2
  -4   5  17 35.4285 4.15565   1
   3   5  16 109.052 4.54153  -2
  -3   5  17 109.052 4.54153   1
   2   5  16 97.8291 4.19815  -2
  -2   5  17 97.8291 4.19815   1
   1   5  17 131.355 8.64579  -2
  -1   5  17 131.355 8.64579   1
   0   5  17 31.7232 2.49894  -2
   0   5  17 31.7232 2.49894   1
  -1   5  17 125.746 9.82220  -2
   1   5  17 125.746 9.82220   1
  -2   5  18 65.8859 3.28579  -2
   2   5  17 65.8859 3.28579   1
  -3   5  18 25.0525 3.08918  -2
   3   5  17 25.0525 3.08918   1
  -4   5  19 13.0351 5.03684  -2
   4   5  17 13.0351 5.03684   1
  -5   5  19 14.2446 3.07949  -2
   5   5  17 14.2446 3.07949   1
  -6   5  20 23.5843 16.0484  -2
   6   5  17 23.5843 16.0484   1
  -7   5  20 22.5955 3.17167  -2
   7   5  17 22.5955 3.17167   1
  -8   5  20 10.7283 5.93494  -2
   8   5  17 10.7283 5.93494   1
  -8   5  21 19.5195 14.5393  -2
   8   5  17 19.5195 14.5393   1
  -9   5  21 3.42863 5.80647  -2
   9   5  17 3.42863 5.80647   1
  -9   5  20 40.3559 11.9782  -2
   9   5  17 40.3559 11.9782   1
 -10   5  21 10.3651 4.90521  -2
  10   5  17 10.3651 4.90521   1
  12   6  12 0.14581 3.67725  -2
 -12   6  17 0.14581 3.67725   1
  11   6  12 -5.1991 5.45607  -2
 -11   6  17 -5.1991 5.45607   1
  10   6  13 7.57035 4.58944  -2
 -10   6  17 7.57035 4.58944   1
   9   6  13 59.6606 7.08547  -2
  -9   6  17 59.6606 7.08547   1
   8   6  14 98.7120 17.3770  -2
  -8   6  17 98.7120 17.3770   1
   7   6  14 58.1751 4.32416  -2
  -7   6  17 58.1751 4.32416   1
   6   6  14 -11.741 12.8816  -2
  -6   6  17 -11.741 12.8816   1
   5   6  15 353.557 11.4871  -2
  -5   6  17 353.557 11.4871   1
   4   6  15 107.988 6.05158  -2
  -4   6  17 107.988 6.05158   1
   3   6  16 187.757 7.28608  -2
  -3   6  17 187.757 7.28608   1
   2   6  16 235.128 8.06148  -2
  -2   6  17 235.128 8.06148   1
   1   6  17 400.854 29.0684  -2
  -1   6  17 400.854 29.0684   1
   0   6  17 166.193 6.76931  -2
   0   6  17 166.193 6.76931   1
  -1   6  17 508.926 32.1856  -2
   1   6  17 508.926 32.1856   1
  -2   6  18 143.976 5.20758  -2
   2   6  17 143.976 5.20758   1
  -3   6  18 64.8994 5.52470  -2
   3   6  17 64.8994 5.52470   1
  -4   6  19 131.893 8.64009  -2
   4   6  17 131.893 8.64009   1
  -5   6  19 215.316 8.32709  -2
   5   6  17 215.316 8.32709   1
  -7   6  20 18.9525 3.05337  -2
   7   6  17 18.9525 3.05337   1
  -8   6  20 83.4611 7.03592  -2
   8   6  17 83.4611 7.03592   1
  -9   6  21 88.8239 6.51954  -2
   9   6  17 88.8239 6.51954   1
  -9   6  20 96.7758 23.2630  -2
   9   6  17 96.7758 23.2630   1
 -10   6  21 17.0242 5.16222  -2
  10   6  17 17.0242 5.16222   1
  12   7  12 50.9407 7.85136  -2
 -12   7  17 50.9407 7.85136   1
  11   7  12 5.08221 8.69831  -2
 -11   7  17 5.08221 8.69831   1
  10   7  13 57.1441 5.12970  -2
 -10   7  17 57.1441 5.12970   1
   9   7  13 108.063 7.69625  -2
  -9   7  17 108.063 7.69625   1
   8   7  14 44.3195 9.59437  -2
  -8   7  17 44.3195 9.59437   1
   7   7  14 33.6415 4.59064  -2
  -7   7  17 33.6415 4.59064   1
   6   7  14 206.160 22.7013  -2
  -6   7  17 206.160 22.7013   1
   5   7  15 91.8532 4.78489  -2
  -5   7  17 91.8532 4.78489   1
   4   7  15 47.9763 4.82946  -2
  -4   7  17 47.9763 4.82946   1
   3   7  16 84.1224 4.84271  -2
  -3   7  17 84.1224 4.84271   1
   2   7  16 116.023 6.11328  -2
  -2   7  17 116.023 6.11328   1
   1   7  17 12.5237 13.0206  -2
  -1   7  17 12.5237 13.0206   1
   0   7  17 247.149 9.67143  -2
   0   7  17 247.149 9.67143   1
  -1   7  17 36.5186 3.61786  -2
   1   7  17 36.5186 3.61786   1
  -2   7  18 4.55948 4.08468  -2
   2   7  17 4.55948 4.08468   1
  -3   7  18 19.1965 3.10223  -2
   3   7  17 19.1965 3.10223   1
  -4   7  19 33.7877 5.75856  -2
   4   7  17 33.7877 5.75856   1
  -5   7  19 -3.4618 3.32707  -2
   5   7  17 -3.4618 3.32707   1
  -6   7  20 20.7339 12.9612  -2
   6   7  17 20.7339 12.9612   1
  -6   7  19 28.3288 8.60102  -2
   6   7  17 28.3288 8.60102   1
  -7   7  20 54.2041 3.84813  -2
   7   7  17 54.2041 3.84813   1
  -8   7  20 17.6630 5.60563  -2
   8   7  17 17.6630 5.60563   1
  -9   7  21 25.6193 5.71462  -2
   9   7  17 25.6193 5.71462   1
   9   7  17 14.3166 7.25378   1
  -9   7  20 15.2228 19.3293  -2
   9   7  17 15.2228 19.3293   1
 -10   7  21 39.0296 6.37776  -2
  10   7  17 39.0296 6.37776   1
  11   8  12 -12.302 11.1551  -2
 -11   8  17 -12.302 11.1551   1
  10   8  13 89.8777 5.97423  -2
 -10   8  17 89.8777 5.97423   1
   9   8  13 2.65420 3.79595  -2
  -9   8  17 2.65420 3.79595   1
   8   8  14 53.4757 11.4930  -2
  -8   8  17 53.4757 11.4930   1
   7   8  14 6.87002 3.11707  -2
  -7   8  17 6.87002 3.11707   1
   6   8  14 63.4991 40.9685  -2
  -6   8  17 63.4991 40.9685   1
   5   8  15 6.52533 2.77116  -2
  -5   8  17 6.52533 2.77116   1
   4   8  15 107.322 6.26994  -2
  -4   8  17 107.322 6.26994   1
   3   8  16 17.2627 3.80583  -2
  -3   8  17 17.2627 3.80583   1
   2   8  16 10.0248 3.26071  -2
  -2   8  17 10.0248 3.26071   1
   1   8  17 36.1261 13.4710  -2
  -1   8  17 36.1261 13.4710   1
   0   8  17 -0.9392 2.02016  -2
   0   8  17 -0.9392 2.02016   1
  -1   8  17 30.5536 10.5128  -2
   1   8  17 30.5536 10.5128   1
  -2   8  18 11.1581 4.14628  -2
   2   8  17 11.1581 4.14628   1
  -3   8  18 89.3563 6.02016  -2
   3   8  17 89.3563 6.02016   1
  -4   8  19 20.1604 17.1383  -2
   4   8  17 20.1604 17.1383   1
  -5   8  19 0.92402 3.29804  -2
   5   8  17 0.92402 3.29804   1
  -6   8  20 9.26574 14.6164  -2
   6   8  17 9.26574 14.6164   1
  -6   8  19 27.7701 17.6305  -2
   6   8  17 27.7701 17.6305   1
  -7   8  20 44.7323 3.92607  -2
   7   8  17 44.7323 3.92607   1
  -8   8  20 47.3320 7.63507  -2
   8   8  17 47.3320 7.63507   1
  -9   8  21 -11.374 9.44173  -2
   9   8  17 -11.374 9.44173   1
  10   9  13 3.65685 4.48399  -2
 -10   9  17 3.65685 4.48399   1
   9   9  13 23.1317 4.06837  -2
  -9   9  17 23.1317 4.06837   1
   8   9  14 10.5306 16.0758  -2
  -8   9  17 10.5306 16.0758   1
   7   9  14 165.025 7.21658  -2
  -7   9  17 165.025 7.21658   1
   6   9  14 121.476 66.8177  -2
  -6   9  17 121.476 66.8177   1
   5   9  15 11.1241 3.37381  -2
  -5   9  17 11.1241 3.37381   1
   4   9  15 106.329 8.84447  -2
  -4   9  17 106.329 8.84447   1
   3   9  16 206.667 14.4343  -2
  -3   9  17 206.667 14.4343   1
   2   9  16 151.231 6.75863  -2
  -2   9  17 151.231 6.75863   1
   1   9  17 -18.892 34.6759  -2
  -1   9  17 -18.892 34.6759   1
   0   9  17 181.283 7.99315  -2
   0   9  17 181.283 7.99315   1
  -1   9  17 -27.343 61.4128  -2
   1   9  17 -27.343 61.4128   1
  -2   9  18 158.999 11.2692  -2
   2   9  17 158.999 11.2692   1
  -3   9  18 133.099 16.0710  -2
   3   9  17 133.099 16.0710   1
   4   9  17 173.074 22.8516   1
  -4   9  19 175.415 11.3755  -2
   4   9  17 175.415 11.3755   1
  -5   9  19 -2.3574 3.96301  -2
   5   9  17 -2.3574 3.96301   1
  -6   9  20 54.7908 15.4680  -2
   6   9  17 54.7908 15.4680   1
  -6   9  19 190.897 27.7033  -2
   6   9  17 190.897 27.7033   1
  -7   9  20 79.0350 5.59286  -2
   7   9  17 79.0350 5.59286   1
  -8   9  20 35.3427 11.9013  -2
   8   9  17 35.3427 11.9013   1
  10  10  13 30.2994 7.53767  -2
 -10  10  17 30.2994 7.53767   1
   9  10  13 45.3420 6.23640  -2
  -9  10  17 45.3420 6.23640   1
   8  10  14 36.3101 14.9808  -2
  -8  10  17 36.3101 14.9808   1
   7  10  14 17.0984 4.49664  -2
  -7  10  17 17.0984 4.49664   1
   6  10  14 27.7861 39.2452  -2
  -6  10  17 27.7861 39.2452   1
   5  10  15 67.2259 4.45510  -2
  -5  10  17 67.2259 4.45510   1
   4  10  15 8.40056 6.54442  -2
  -4  10  17 8.40056 6.54442   1
   3  10  16 -0.7186 5.37533  -2
  -3  10  17 -0.7186 5.37533   1
   2  10  16 5.24160 3.67058  -2
  -2  10  17 5.24160 3.67058   1
   1  10  17 -16.251 63.8079  -2
  -1  10  17 -16.251 63.8079   1
   0  10  17 31.2875 5.45363  -2
   0  10  17 31.2875 5.45363   1
  -1  10  17 88.4887 16.2293  -2
   1  10  17 88.4887 16.2293   1
  -2  10  18 18.9956 4.67528  -2
   2  10  17 18.9956 4.67528   1
  -3  10  18 14.9740 5.76296  -2
   3  10  17 14.9740 5.76296   1
  -4  10  19 33.2828 6.08176  -2
   4  10  17 33.2828 6.08176   1
  -5  10  19 98.4272 6.27643  -2
   5  10  17 98.4272 6.27643   1
  -6  10  19 77.8434 14.7199  -2
   6  10  17 77.8434 14.7199   1
  -6  10  20 92.6724 17.3830  -2
   6  10  17 92.6724 17.3830   1
  -7  10  20 0.41160 4.09608  -2
   7  10  17 0.41160 4.09608   1
   9  11  13 0.01299 4.24012  -2
  -9  11  17 0.01299 4.24012   1
   8  11  14 16.9171 13.8008  -2
  -8  11  17 16.9171 13.8008   1
   7  11  14 17.4258 3.36567  -2
  -7  11  17 17.4258 3.36567   1
   5  11  15 2.47101 3.28927  -2
  -5  11  17 2.47101 3.28927   1
   4  11  15 22.9800 4.54426  -2
  -4  11  17 22.9800 4.54426   1
   3  11  16 74.2867 5.72427  -2
  -3  11  17 74.2867 5.72427   1
   2  11  16 118.028 6.75220  -2
  -2  11  17 118.028 6.75220   1
   1  11  17 45.4854 15.1822  -2
  -1  11  17 45.4854 15.1822   1
   0  11  17 3.33765 3.04065  -2
   0  11  17 3.33765 3.04065   1
  -1  11  18 69.7050 16.2414  -2
   1  11  17 69.7050 16.2414   1
  -2  11  18 48.3695 5.13336  -2
   2  11  17 48.3695 5.13336   1
  -3  11  18 2.63481 5.22289  -2
   3  11  17 2.63481 5.22289   1
  -4  11  19 20.9092 5.95639  -2
   4  11  17 20.9092 5.95639   1
  -5  11  19 -4.2446 4.37961  -2
   5  11  17 -4.2446 4.37961   1
  -6  11  19 40.5348 18.6891  -2
   6  11  17 40.5348 18.6891   1
  -7  11  20 -7.1698 10.0795  -2
   7  11  17 -7.1698 10.0795   1
   7  12  14 18.4618 4.30365  -2
  -7  12  17 18.4618 4.30365   1
   5  12  15 83.5787 5.51423  -2
  -5  12  17 83.5787 5.51423   1
   4  12  15 5.94946 4.96651  -2
  -4  12  17 5.94946 4.96651   1
   3  12  16 26.2855 4.65856  -2
  -3  12  17 26.2855 4.65856   1
   2  12  16 -0.0403 3.45507  -2
  -2  12  17 -0.0403 3.45507   1
   1  12  17 32.5119 14.2692  -2
  -1  12  17 32.5119 14.2692   1
   0  12  17 12.2194 3.70659  -2
   0  12  17 12.2194 3.70659   1
  -1  12  18 69.1492 16.8577  -2
   1  12  17 69.1492 16.8577   1
  -2  12  18 18.5453 4.45765  -2
   2  12  17 18.5453 4.45765   1
  -3  12  18 5.77804 5.31304  -2
   3  12  17 5.77804 5.31304   1
  -4  12  19 12.9604 6.53061  -2
   4  12  17 12.9604 6.53061   1
  -5  12  19 85.8814 10.8790  -2
   5  12  17 85.8814 10.8790   1
   6  12  17 4.42678 8.87443   1
   5  13  15 45.1000 5.82188  -2
  -5  13  17 45.1000 5.82188   1
   4  13  15 18.4641 6.21336  -2
  -4  13  17 18.4641 6.21336   1
   3  13  16 27.5561 4.92866  -2
  -3  13  17 27.5561 4.92866   1
   2  13  16 65.8978 6.15719  -2
  -2  13  17 65.8978 6.15719   1
   1  13  17 94.1197 19.9590  -2
  -1  13  17 94.1197 19.9590   1
   0  13  17 4.60131 3.18285  -2
   0  13  17 4.60131 3.18285   1
  -1  13  18 -10.284 14.8720  -2
   1  13  17 -10.284 14.8720   1
  -2  13  18 92.8837 6.38024  -2
   2  13  17 92.8837 6.38024   1
  -3  13  18 59.6150 10.8225  -2
   3  13  17 59.6150 10.8225   1
  -4  13  19 15.7706 12.3730  -2
   4  13  17 15.7706 12.3730   1
   2  14  16 -5.3742 7.91475  -2
  -2  14  17 -5.3742 7.91475   1
   0  14  17 26.5239 5.51342  -2
   0  14  17 26.5239 5.51342   1
  -2  14  18 2.61636 4.50045  -2
   2  14  17 2.61636 4.50045   1
  12   0  13 44.0665 5.39719  -2
 -12   0  18 44.0665 5.39719   1
  11   0  13 7.79583 5.42771  -2
 -11   0  18 7.79583 5.42771   1
  10   0  14 41.2032 5.51389  -2
 -10   0  18 41.2032 5.51389   1
   9   0  14 27.7958 6.80067  -2
  -9   0  18 27.7958 6.80067   1
   8   0  15 14.1820 6.66449  -2
  -8   0  18 14.1820 6.66449   1
   7   0  15 118.340 6.66545  -2
  -7   0  18 118.340 6.66545   1
   6   0  15 -5.8254 57.4693  -2
  -6   0  18 -5.8254 57.4693   1
   5   0  16 -4.5063 3.82803  -2
  -5   0  18 -4.5063 3.82803   1
   4   0  16 462.916 28.0659  -2
  -4   0  18 462.916 28.0659   1
   3   0  17 569.677 23.9065  -2
  -3   0  18 569.677 23.9065   1
   2   0  17 303.720 10.9948  -2
  -2   0  18 303.720 10.9948   1
   1   0  18 -26.708 46.7744  -2
  -1   0  18 -26.708 46.7744   1
   0   0  18 1251.97 54.5524  -2
   0   0  18 1251.97 54.5524   1
  -2   0  19 350.443 16.2019  -2
   2   0  18 350.443 16.2019   1
  -3   0  19 367.864 20.5526  -2
   3   0  18 367.864 20.5526   1
  -4   0  20 1123.52 51.0118  -2
   4   0  18 1123.52 51.0118   1
  -5   0  20 -3.4666 5.64257  -2
   5   0  18 -3.4666 5.64257   1
  -6   0  20 478.722 48.1850  -2
   6   0  18 478.722 48.1850   1
  -6   0  21 250.150 22.6016  -2
   6   0  18 250.150 22.6016   1
  -7   0  21 123.725 7.12976  -2
   7   0  18 123.725 7.12976   1
  -8   0  21 13.7473 10.4212  -2
   8   0  18 13.7473 10.4212   1
  -9   0  22 6.91300 5.58386  -2
   9   0  18 6.91300 5.58386   1
  -9   0  21 137.964 23.4272  -2
   9   0  18 137.964 23.4272   1
 -10   0  22 195.032 12.0003  -2
  10   0  18 195.032 12.0003   1
 -11   0  23 35.4615 14.4699  -2
  11   0  18 35.4615 14.4699   1
 -11   0  22 -6.5910 14.0875  -2
  11   0  18 -6.5910 14.0875   1
  12   1  13 120.696 5.66968  -2
 -12   1  18 120.696 5.66968   1
  11   1  13 67.7985 5.47743  -2
 -11   1  18 67.7985 5.47743   1
  10   1  14 121.132 6.53778  -2
 -10   1  18 121.132 6.53778   1
   9   1  14 31.9061 4.16478  -2
  -9   1  18 31.9061 4.16478   1
   8   1  15 108.856 11.8004  -2
  -8   1  18 108.856 11.8004   1
   7   1  15 174.254 7.74818  -2
  -7   1  18 174.254 7.74818   1
   6   1  15 5.91498 7.43035  -2
  -6   1  18 5.91498 7.43035   1
   5   1  16 13.1976 2.21829  -2
  -5   1  18 13.1976 2.21829   1
   4   1  16 82.7629 4.38917  -2
  -4   1  18 82.7629 4.38917   1
   3   1  17 22.3298 1.92056  -2
  -3   1  18 22.3298 1.92056   1
   2   1  17 65.6747 3.07013  -2
  -2   1  18 65.6747 3.07013   1
   1   1  18 39.6031 32.2827  -2
  -1   1  18 39.6031 32.2827   1
   0   1  18 183.022 7.51919  -2
   0   1  18 183.022 7.51919   1
  -1   1  18 9.61698 37.2570  -2
   1   1  18 9.61698 37.2570   1
  -2   1  19 40.0231 3.51554  -2
   2   1  18 40.0231 3.51554   1
  -3   1  19 1.73186 3.57178  -2
   3   1  18 1.73186 3.57178   1
  -4   1  20 16.8933 4.02019  -2
   4   1  18 16.8933 4.02019   1
  -5   1  20 53.2978 4.10796  -2
   5   1  18 53.2978 4.10796   1
  -6   1  21 34.8270 8.55687  -2
   6   1  18 34.8270 8.55687   1
  -6   1  20 98.8500 17.5408  -2
   6   1  18 98.8500 17.5408   1
  -7   1  21 76.1313 4.61087  -2
   7   1  18 76.1313 4.61087   1
  -8   1  21 55.5989 4.97018  -2
   8   1  18 55.5989 4.97018   1
  -9   1  22 2.43496 3.49433  -2
   9   1  18 2.43496 3.49433   1
 -10   1  22 46.7318 5.77252  -2
  10   1  18 46.7318 5.77252   1
  11   1  18 20.5966 5.24899   1
  11   1  18 13.8539 5.20050   2
 -11   1  22 40.1986 17.1753  -2
  11   1  18 40.1986 17.1753   1
  12   2  13 7.37764 3.41696  -2
 -12   2  18 7.37764 3.41696   1
  11   2  13 13.9009 4.04907  -2
 -11   2  18 13.9009 4.04907   1
  10   2  14 -0.0501 3.79063  -2
 -10   2  18 -0.0501 3.79063   1
   9   2  14 15.5875 3.40864  -2
  -9   2  18 15.5875 3.40864   1
   8   2  15 87.6885 9.91904  -2
  -8   2  18 87.6885 9.91904   1
   7   2  15 115.230 6.09689  -2
  -7   2  18 115.230 6.09689   1
   6   2  15 26.0221 4.41006  -2
  -6   2  18 26.0221 4.41006   1
   5   2  16 46.8577 3.50131  -2
  -5   2  18 46.8577 3.50131   1
   4   2  16 15.2014 3.59274  -2
  -4   2  18 15.2014 3.59274   1
   3   2  17 197.450 7.66518  -2
  -3   2  18 197.450 7.66518   1
   2   2  17 233.140 10.7481  -2
  -2   2  18 233.140 10.7481   1
   1   2  18 263.639 26.0605  -2
  -1   2  18 263.639 26.0605   1
   0   2  18 1.35743 1.14863  -2
   0   2  18 1.35743 1.14863   1
  -1   2  18 308.522 28.0545  -2
   1   2  18 308.522 28.0545   1
  -2   2  19 178.592 6.89496  -2
   2   2  18 178.592 6.89496   1
  -3   2  19 86.3948 4.54801  -2
   3   2  18 86.3948 4.54801   1
  -4   2  20 10.8396 3.58779  -2
   4   2  18 10.8396 3.58779   1
  -5   2  20 60.2826 3.82298  -2
   5   2  18 60.2826 3.82298   1
  -6   2  21 10.9033 8.10042  -2
   6   2  18 10.9033 8.10042   1
  -6   2  20 19.1530 12.2362  -2
   6   2  18 19.1530 12.2362   1
  -7   2  21 9.63972 2.58474  -2
   7   2  18 9.63972 2.58474   1
  -8   2  21 62.5992 17.2625  -2
  -8   2  22 62.5992 17.2625  -2
   8   2  18 62.5992 17.2625   1
  -8   2  21 27.8954 6.64314  -2
   8   2  18 27.8954 6.64314   1
  -9   2  22 76.4398 6.17969  -2
   9   2  18 76.4398 6.17969   1
 -10   2  22 -1.1819 4.25066  -2
  10   2  18 -1.1819 4.25066   1
  11   2  18 -4.1025 3.54892   1
  11   2  18 -3.0085 3.56200   2
 -11   2  22 5.93995 15.5307  -2
  11   2  18 5.93995 15.5307   1
  12   3  13 13.6326 3.72138  -2
 -12   3  18 13.6326 3.72138   1
  11   3  13 56.1582 7.10679  -2
 -11   3  18 56.1582 7.10679   1
  10   3  14 2.27437 3.85020  -2
 -10   3  18 2.27437 3.85020   1
   9   3  14 115.783 7.20283  -2
  -9   3  18 115.783 7.20283   1
   8   3  15 35.7455 7.95269  -2
  -8   3  18 35.7455 7.95269   1
   7   3  15 111.228 5.54808  -2
  -7   3  18 111.228 5.54808   1
   6   3  15 156.750 45.8340  -2
  -6   3  18 156.750 45.8340   1
   5   3  16 205.110 8.05451  -2
  -5   3  18 205.110 8.05451   1
   4   3  16 68.3839 5.08943  -2
  -4   3  18 68.3839 5.08943   1
   3   3  17 233.496 9.40274  -2
  -3   3  18 233.496 9.40274   1
   2   3  17 166.957 6.76378  -2
  -2   3  18 166.957 6.76378   1
   1   3  18 151.544 17.3826  -2
  -1   3  18 151.544 17.3826   1
   0   3  18 147.873 5.54982  -2
   0   3  18 147.873 5.54982   1
  -1   3  18 166.067 12.4584  -2
   1   3  18 166.067 12.4584   1
  -2   3  19 202.354 6.94418  -2
   2   3  18 202.354 6.94418   1
  -3   3  19 246.093 8.43411  -2
   3   3  18 246.093 8.43411   1
  -4   3  20 43.2937 4.52648  -2
   4   3  18 43.2937 4.52648   1
  -5   3  20 112.575 5.23715  -2
   5   3  18 112.575 5.23715   1
  -6   3  21 128.645 13.1899  -2
   6   3  18 128.645 13.1899   1
  -6   3  20 35.1350 12.5720  -2
   6   3  18 35.1350 12.5720   1
  -7   3  21 173.565 6.45130  -2
   7   3  18 173.565 6.45130   1
  -8   3  21 53.7561 6.06093  -2
   8   3  18 53.7561 6.06093   1
  -9   3  22 59.0289 5.41025  -2
   9   3  18 59.0289 5.41025   1
 -10   3  22 6.26054 3.97926  -2
  10   3  18 6.26054 3.97926   1
 -13   4  18 17.5651 6.47875   2
  13   4  12 12.2930 11.8260  -2
 -13   4  18 12.2930 11.8260   1
  12   4  13 21.6918 4.09890  -2
 -12   4  18 21.6918 4.09890   1
  11   4  13 41.8741 8.81804  -2
 -11   4  18 41.8741 8.81804   1
  10   4  14 141.871 7.66435  -2
 -10   4  18 141.871 7.66435   1
   9   4  14 72.0854 4.84260  -2
  -9   4  18 72.0854 4.84260   1
   8   4  15 111.151 8.16315  -2
  -8   4  18 111.151 8.16315   1
   7   4  15 42.8813 3.46407  -2
  -7   4  18 42.8813 3.46407   1
   6   4  15 30.1275 44.9720  -2
  -6   4  18 30.1275 44.9720   1
   5   4  16 46.4055 4.22321  -2
  -5   4  18 46.4055 4.22321   1
   4   4  16 246.642 12.7207  -2
  -4   4  18 246.642 12.7207   1
   3   4  17 13.7797 4.59097  -2
  -3   4  18 13.7797 4.59097   1
   2   4  17 20.6601 3.52805  -2
  -2   4  18 20.6601 3.52805   1
   1   4  18 2.70545 8.39395  -2
  -1   4  18 2.70545 8.39395   1
   0   4  18 102.409 5.63983  -2
   0   4  18 102.409 5.63983   1
  -1   4  18 30.3492 5.53142  -2
   1   4  18 30.3492 5.53142   1
  -2   4  19 14.4455 1.74100  -2
   2   4  18 14.4455 1.74100   1
  -3   4  19 11.7158 3.05409  -2
   3   4  18 11.7158 3.05409   1
  -4   4  20 37.0554 5.11266  -2
   4   4  18 37.0554 5.11266   1
   4   4  18 9.72275 5.40758   1
  -5   4  20 12.4527 3.29358  -2
   5   4  18 12.4527 3.29358   1
  -6   4  21 20.9518 13.2318  -2
   6   4  18 20.9518 13.2318   1
  -6   4  20 29.6639 12.1148  -2
   6   4  18 29.6639 12.1148   1
  -7   4  21 19.5805 3.10108  -2
   7   4  18 19.5805 3.10108   1
  -8   4  21 8.87635 5.90167  -2
   8   4  18 8.87635 5.90167   1
  -9   4  22 13.1088 7.86919  -2
   9   4  18 13.1088 7.86919   1
  -9   4  21 7.99033 18.2687  -2
   9   4  18 7.99033 18.2687   1
 -10   4  22 1.03141 4.77805  -2
  10   4  18 1.03141 4.77805   1
  12   5  13 28.4808 5.39396  -2
 -12   5  18 28.4808 5.39396   1
  11   5  13 42.6625 5.96653  -2
 -11   5  18 42.6625 5.96653   1
  10   5  14 52.6032 5.90264  -2
 -10   5  18 52.6032 5.90264   1
   9   5  14 32.7806 5.13888  -2
  -9   5  18 32.7806 5.13888   1
   8   5  15 22.1143 7.54707  -2
  -8   5  18 22.1143 7.54707   1
   7   5  15 77.0261 4.50988  -2
  -7   5  18 77.0261 4.50988   1
   6   5  15 64.7274 12.7769  -2
  -6   5  18 64.7274 12.7769   1
   5   5  16 108.664 6.17399  -2
  -5   5  18 108.664 6.17399   1
   4   5  16 47.3069 4.03886  -2
  -4   5  18 47.3069 4.03886   1
   3   5  17 13.8328 3.20708  -2
  -3   5  18 13.8328 3.20708   1
   2   5  17 80.4725 3.61458  -2
  -2   5  18 80.4725 3.61458   1
   1   5  18 70.3654 5.88647  -2
  -1   5  18 70.3654 5.88647   1
   0   5  18 4.76250 1.74239  -2
   0   5  18 4.76250 1.74239   1
  -1   5  18 61.0303 5.51067  -2
   1   5  18 61.0303 5.51067   1
  -2   5  19 133.010 7.09192  -2
   2   5  18 133.010 7.09192   1
  -3   5  19 84.1097 4.50372  -2
   3   5  18 84.1097 4.50372   1
  -4   5  20 39.4990 5.65742  -2
   4   5  18 39.4990 5.65742   1
  -4   5  19 42.6275 11.6082  -2
   4   5  18 42.6275 11.6082   1
  -5   5  20 12.1029 2.93739  -2
   5   5  18 12.1029 2.93739   1
  -6   5  21 58.8045 93.2100  -2
   6   5  18 58.8045 93.2100   1
  -7   5  21 5.34647 3.01183  -2
   7   5  18 5.34647 3.01183   1
  -8   5  21 8.84029 6.97223  -2
   8   5  18 8.84029 6.97223   1
   8   5  18 7.82438 7.43843   1
  -9   5  22 17.9563 6.25073  -2
   9   5  18 17.9563 6.25073   1
 -10   5  22 7.24086 4.71582  -2
  10   5  18 7.24086 4.71582   1
  12   6  13 13.0872 6.61884  -2
 -12   6  18 13.0872 6.61884   1
  11   6  13 4.60751 6.05262  -2
 -11   6  18 4.60751 6.05262   1
  10   6  14 109.077 6.30817  -2
 -10   6  18 109.077 6.30817   1
   9   6  14 28.9428 4.87674  -2
  -9   6  18 28.9428 4.87674   1
   8   6  15 99.9671 12.2727  -2
  -8   6  18 99.9671 12.2727   1
   7   6  15 57.4760 4.40543  -2
  -7   6  18 57.4760 4.40543   1
   6   6  15 145.604 19.0824  -2
  -6   6  18 145.604 19.0824   1
   5   6  16 42.7170 3.48445  -2
  -5   6  18 42.7170 3.48445   1
   4   6  16 426.427 15.6262  -2
  -4   6  18 426.427 15.6262   1
   3   6  17 87.5711 5.73825  -2
  -3   6  18 87.5711 5.73825   1
   2   6  17 103.317 6.06765  -2
  -2   6  18 103.317 6.06765   1
   1   6  18 -9.9126 11.6324  -2
  -1   6  18 -9.9126 11.6324   1
   0   6  18 295.232 10.4256  -2
   0   6  18 295.232 10.4256   1
  -1   6  18 -15.734 11.5674  -2
   1   6  18 -15.734 11.5674   1
  -2   6  19 77.4170 4.39077  -2
   2   6  18 77.4170 4.39077   1
  -3   6  19 175.477 7.36577  -2
   3   6  18 175.477 7.36577   1
  -4   6  20 88.3057 9.32266  -2
   4   6  18 88.3057 9.32266   1
  -4   6  19 172.800 19.1834  -2
   4   6  18 172.800 19.1834   1
  -5   6  20 24.4102 3.80799  -2
   5   6  18 24.4102 3.80799   1
  -6   6  20 89.4867 19.6669  -2
   6   6  18 89.4867 19.6669   1
  -7   6  21 25.7489 3.61881  -2
   7   6  18 25.7489 3.61881   1
  -8   6  21 46.5289 6.66819  -2
   8   6  18 46.5289 6.66819   1
  -9   6  22 30.8793 5.52419  -2
   9   6  18 30.8793 5.52419   1
  -9   6  21 94.1190 23.5581  -2
   9   6  18 94.1190 23.5581   1
 -10   6  22 63.0655 8.22522  -2
  10   6  18 63.0655 8.22522   1
  11   7  13 93.8627 8.89721  -2
 -11   7  18 93.8627 8.89721   1
  10   7  14 40.4092 5.52928  -2
 -10   7  18 40.4092 5.52928   1
   9   7  14 45.9502 4.80673  -2
  -9   7  18 45.9502 4.80673   1
   8   7  15 65.8913 10.2289  -2
  -8   7  18 65.8913 10.2289   1
   7   7  15 118.699 6.45289  -2
  -7   7  18 118.699 6.45289   1
   6   7  15 86.5813 15.5838  -2
  -6   7  18 86.5813 15.5838   1
   5   7  16 128.289 5.93214  -2
  -5   7  18 128.289 5.93214   1
   4   7  16 8.39429 4.03557  -2
  -4   7  18 8.39429 4.03557   1
   3   7  17 14.2790 4.23028  -2
  -3   7  18 14.2790 4.23028   1
   2   7  17 -6.9866 3.23572  -2
  -2   7  18 -6.9866 3.23572   1
   1   7  18 21.0773 9.90203  -2
  -1   7  18 21.0773 9.90203   1
   0   7  18 5.65799 2.95413  -2
   0   7  18 5.65799 2.95413   1
  -1   7  18 19.2355 3.61346  -2
   1   7  18 19.2355 3.61346   1
  -2   7  19 24.6557 4.33217  -2
   2   7  18 24.6557 4.33217   1
  -3   7  19 26.2866 4.96440  -2
   3   7  18 26.2866 4.96440   1
  -4   7  20 62.7604 14.7411  -2
   4   7  18 62.7604 14.7411   1
  -5   7  20 -1.0300 3.08679  -2
   5   7  18 -1.0300 3.08679   1
  -6   7  20 -1.6898 6.77954  -2
   6   7  18 -1.6898 6.77954   1
  -6   7  21 -9.7406 11.8896  -2
   6   7  18 -9.7406 11.8896   1
  -7   7  21 31.7397 3.33147  -2
   7   7  18 31.7397 3.33147   1
  -8   7  21 25.8466 7.38401  -2
   8   7  18 25.8466 7.38401   1
  -9   7  22 4.25002 6.02230  -2
   9   7  18 4.25002 6.02230   1
  11   8  13 10.8233 12.1255  -2
 -11   8  18 10.8233 12.1255   1
  10   8  14 -2.9000 5.60285  -2
 -10   8  18 -2.9000 5.60285   1
   9   8  14 111.646 6.56810  -2
  -9   8  18 111.646 6.56810   1
   8   8  15 36.7456 15.4623  -2
  -8   8  18 36.7456 15.4623   1
   7   8  15 3.40772 3.21341  -2
  -7   8  18 3.40772 3.21341   1
   6   8  15 -38.350 43.9389  -2
  -6   8  18 -38.350 43.9389   1
   5   8  16 -2.3131 3.72039  -2
  -5   8  18 -2.3131 3.72039   1
   4   8  16 14.3626 4.67637  -2
  -4   8  18 14.3626 4.67637   1
   3   8  17 51.0891 7.70951  -2
  -3   8  18 51.0891 7.70951   1
   2   8  17 24.4985 3.34138  -2
  -2   8  18 24.4985 3.34138   1
   1   8  18 26.1546 12.0339  -2
  -1   8  18 26.1546 12.0339   1
   0   8  18 3.66582 2.89606  -2
   0   8  18 3.66582 2.89606   1
  -1   8  18 47.2972 15.1457  -2
   1   8  18 47.2972 15.1457   1
  -2   8  19 70.9375 7.31621  -2
   2   8  18 70.9375 7.31621   1
  -3   8  19 85.7588 11.3371  -2
   3   8  18 85.7588 11.3371   1
  -4   8  20 11.4265 6.87932  -2
   4   8  18 11.4265 6.87932   1
  -5   8  20 21.5729 4.23472  -2
   5   8  18 21.5729 4.23472   1
  -6   8  21 -2.2852 13.5360  -2
   6   8  18 -2.2852 13.5360   1
  -6   8  20 -18.204 14.0808  -2
   6   8  18 -18.204 14.0808   1
  -7   8  21 51.7191 4.73839  -2
   7   8  18 51.7191 4.73839   1
  -8   8  21 51.6674 10.1885  -2
   8   8  18 51.6674 10.1885   1
   9   8  18 -1.1422 6.79443   1
  10   9  14 6.62532 6.47986  -2
 -10   9  18 6.62532 6.47986   1
   9   9  14 46.5669 5.39129  -2
  -9   9  18 46.5669 5.39129   1
   7   9  15 108.198 6.53435  -2
  -7   9  18 108.198 6.53435   1
   5   9  16 115.142 6.24297  -2
  -5   9  18 115.142 6.24297   1
   4   9  16 20.8901 5.40295  -2
  -4   9  18 20.8901 5.40295   1
   3   9  17 150.494 14.0132  -2
  -3   9  18 150.494 14.0132   1
   2   9  17 198.853 9.92156  -2
  -2   9  18 198.853 9.92156   1
   1   9  18 118.561 41.5956  -2
  -1   9  18 118.561 41.5956   1
   0   9  18 -5.8567 5.25942  -2
   0   9  18 -5.8567 5.25942   1
  -2   9  19 223.990 11.6849  -2
   2   9  18 223.990 11.6849   1
  -3   9  19 122.120 10.2109  -2
   3   9  18 122.120 10.2109   1
  -4   9  20 52.8514 7.53403  -2
   4   9  18 52.8514 7.53403   1
  -5   9  20 140.427 7.59279  -2
   5   9  18 140.427 7.59279   1
  -6   9  21 115.416 19.1207  -2
   6   9  18 115.416 19.1207   1
  -6   9  20 47.6083 16.9825  -2
   6   9  18 47.6083 16.9825   1
  -7   9  21 23.6546 3.96106  -2
   7   9  18 23.6546 3.96106   1
   8   9  18 18.9689 7.92832   1
   9  10  14 29.0176 4.88105  -2
  -9  10  18 29.0176 4.88105   1
   7  10  15 7.12688 3.52049  -2
  -7  10  18 7.12688 3.52049   1
   5  10  16 70.8558 5.45329  -2
  -5  10  18 70.8558 5.45329   1
   4  10  16 71.1987 8.11784  -2
  -4  10  18 71.1987 8.11784   1
   3  10  17 13.4850 5.45267  -2
  -3  10  18 13.4850 5.45267   1
   2  10  17 37.9150 5.01930  -2
  -2  10  18 37.9150 5.01930   1
   1  10  18 57.8575 15.1580  -2
  -1  10  18 57.8575 15.1580   1
   0  10  18 236.138 9.95423  -2
   0  10  18 236.138 9.95423   1
  -2  10  19 9.17173 5.21910  -2
   2  10  18 9.17173 5.21910   1
  -3  10  19 20.1324 5.19400  -2
   3  10  18 20.1324 5.19400   1
  -4  10  20 106.242 7.73851  -2
   4  10  18 106.242 7.73851   1
  -5  10  20 24.6070 5.40911  -2
   5  10  18 24.6070 5.40911   1
  -6  10  20 -7.8556 16.8538  -2
   6  10  18 -7.8556 16.8538   1
  -6  10  21 40.8236 14.2965  -2
   6  10  18 40.8236 14.2965   1
  -7  10  21 9.88995 8.03515  -2
   7  10  18 9.88995 8.03515   1
   7  11  15 5.70584 3.66455  -2
  -7  11  18 5.70584 3.66455   1
   5  11  16 -1.5699 3.54714  -2
  -5  11  18 -1.5699 3.54714   1
   4  11  16 20.4071 5.39791  -2
  -4  11  18 20.4071 5.39791   1
   3  11  17 8.82465 4.27431  -2
  -3  11  18 8.82465 4.27431   1
   2  11  17 31.1245 4.33101  -2
  -2  11  18 31.1245 4.33101   1
   1  11  18 42.1929 17.2336  -2
  -1  11  18 42.1929 17.2336   1
   0  11  18 -1.3598 3.04491  -2
   0  11  18 -1.3598 3.04491   1
  -1  11  18 55.4750 15.1651  -2
   1  11  18 55.4750 15.1651   1
  -2  11  19 24.9713 4.54597  -2
   2  11  18 24.9713 4.54597   1
  -3  11  19 32.0611 6.12277  -2
   3  11  18 32.0611 6.12277   1
  -4  11  20 14.2215 5.78286  -2
   4  11  18 14.2215 5.78286   1
  -5  11  20 61.4575 5.50100  -2
   5  11  18 61.4575 5.50100   1
   7  12  15 1.93877 3.83948  -2
  -7  12  18 1.93877 3.83948   1
   5  12  16 13.0525 4.14498  -2
  -5  12  18 13.0525 4.14498   1
   4  12  16 110.968 6.79625  -2
  -4  12  18 110.968 6.79625   1
   3  12  17 7.57319 4.40485  -2
  -3  12  18 7.57319 4.40485   1
   2  12  17 14.7027 3.84808  -2
  -2  12  18 14.7027 3.84808   1
   1  12  18 2.17917 12.8259  -2
  -1  12  18 2.17917 12.8259   1
   0  12  18 79.3487 5.19157  -2
   0  12  18 79.3487 5.19157   1
  -1  12  19 34.2264 14.9063  -2
   1  12  18 34.2264 14.9063   1
  -1  12  18 27.4195 14.4300  -2
   1  12  18 27.4195 14.4300   1
  -2  12  19 30.8116 4.91110  -2
   2  12  18 30.8116 4.91110   1
  -3  12  19 67.2659 6.94781  -2
   3  12  18 67.2659 6.94781   1
  -4  12  20 91.5406 18.5770  -2
   4  12  18 91.5406 18.5770   1
  -5  12  20 14.9349 10.5119  -2
   5  12  18 14.9349 10.5119   1
   5  13  16 2.17240 6.58560  -2
  -5  13  18 2.17240 6.58560   1
   4  13  16 71.3710 11.4740  -2
  -4  13  18 71.3710 11.4740   1
   3  13  17 61.2215 6.30708  -2
  -3  13  18 61.2215 6.30708   1
   2  13  17 89.4823 6.87043  -2
  -2  13  18 89.4823 6.87043   1
   1  13  18 0.03341 12.8673  -2
  -1  13  18 0.03341 12.8673   1
   0  13  18 21.1851 3.81442  -2
   0  13  18 21.1851 3.81442   1
  -1  13  18 -6.4082 12.6886  -2
   1  13  18 -6.4082 12.6886   1
  -2  13  19 7.61866 7.76762  -2
   2  13  18 7.61866 7.76762   1
  -3  13  19 18.6050 11.6670  -2
   3  13  18 18.6050 11.6670   1
   2  14  17 9.42233 9.08646  -2
  -2  14  18 9.42233 9.08646   1
  -1  14  18 3.77977 4.55222   2
  -1  14  18 15.6505 4.92862   1
   0  14  18 2.62255 3.43334  -2
   0  14  18 2.62255 3.43334   1
  12   0  14 17.0674 5.35180  -2
 -12   0  19 17.0674 5.35180   1
  11   0  14 45.4068 7.13629  -2
 -11   0  19 45.4068 7.13629   1
  10   0  15 -0.1262 4.71319  -2
 -10   0  19 -0.1262 4.71319   1
   9   0  15 80.3619 12.0986  -2
  -9   0  19 80.3619 12.0986   1
   8   0  16 106.373 11.8247  -2
  -8   0  19 106.373 11.8247   1
   7   0  16 46.8995 2.63255  -2
  -7   0  19 46.8995 2.63255   1
   6   0  16 56.5047 66.9528  -2
  -6   0  19 56.5047 66.9528   1
   5   0  17 685.477 32.1940  -2
  -5   0  19 685.477 32.1940   1
   4   0  17 -27.417 12.3109  -2
  -4   0  19 -27.417 12.3109   1
   3   0  18 283.111 11.9178  -2
  -3   0  19 283.111 11.9178   1
   2   0  18 496.788 19.1820  -2
  -2   0  19 496.788 19.1820   1
   1   0  19 1413.47 143.094  -2
  -1   0  19 1413.47 143.094   1
   0   0  19 29.2732 3.80202  -2
   0   0  19 29.2732 3.80202   1
  -1   0  19 1582.45 222.816  -2
   1   0  19 1582.45 222.816   1
  -2   0  20 280.220 16.1570  -2
   2   0  19 280.220 16.1570   1
  -3   0  20 71.9349 6.33844  -2
   3   0  19 71.9349 6.33844   1
  -4   0  21 82.0957 7.36744  -2
   4   0  19 82.0957 7.36744   1
  -5   0  21 553.309 21.4287  -2
   5   0  19 553.309 21.4287   1
  -6   0  22 11.2753 7.90718  -2
   6   0  19 11.2753 7.90718   1
  -7   0  22 26.8517 3.78933  -2
   7   0  19 26.8517 3.78933   1
  -8   0  22 237.702 17.8255  -2
   8   0  19 237.702 17.8255   1
  -9   0  23 138.918 9.15611  -2
   9   0  19 138.918 9.15611   1
  -9   0  22 82.7934 20.2750  -2
   9   0  19 82.7934 20.2750   1
 -10   0  23 12.0790 8.12125  -2
  10   0  19 12.0790 8.12125   1
  12   1  14 45.1560 4.66378  -2
 -12   1  19 45.1560 4.66378   1
  11   1  14 14.8644 4.14862  -2
 -11   1  19 14.8644 4.14862   1
  10   1  15 27.7190 4.34072  -2
 -10   1  19 27.7190 4.34072   1
   9   1  15 97.1812 6.69899  -2
  -9   1  19 97.1812 6.69899   1
   8   1  16 -12.171 5.97465  -2
  -8   1  19 -12.171 5.97465   1
   7   1  16 34.2005 2.83455  -2
  -7   1  19 34.2005 2.83455   1
   6   1  16 388.484 24.0336  -2
  -6   1  19 388.484 24.0336   1
   5   1  17 221.258 7.17182  -2
  -5   1  19 221.258 7.17182   1
   4   1  17 79.9543 3.25300  -2
  -4   1  19 79.9543 3.25300   1
   3   1  18 -0.7497 1.29568  -2
  -3   1  19 -0.7497 1.29568   1
   2   1  18 60.6368 2.87068  -2
  -2   1  19 60.6368 2.87068   1
   1   1  19 80.5838 8.91871  -2
  -1   1  19 80.5838 8.91871   1
   0   1  19 123.938 5.11827  -2
   0   1  19 123.938 5.11827   1
  -1   1  19 114.077 37.8122  -2
   1   1  19 114.077 37.8122   1
  -2   1  20 58.5698 3.82946  -2
   2   1  19 58.5698 3.82946   1
  -3   1  20 10.7720 3.55025  -2
   3   1  19 10.7720 3.55025   1
  -4   1  21 11.5050 4.54707  -2
   4   1  19 11.5050 4.54707   1
  -5   1  21 75.3751 4.34221  -2
   5   1  19 75.3751 4.34221   1
  -6   1  22 75.8442 9.84346  -2
   6   1  19 75.8442 9.84346   1
  -6   1  21 5.51149 13.5154  -2
   6   1  19 5.51149 13.5154   1
  -7   1  22 13.9499 2.78255  -2
   7   1  19 13.9499 2.78255   1
  -8   1  22 19.4333 5.39309  -2
   8   1  19 19.4333 5.39309   1
  -9   1  23 26.5175 3.93355  -2
   9   1  19 26.5175 3.93355   1
 -10   1  23 9.59505 5.84781  -2
  10   1  19 9.59505 5.84781   1
  12   2  14 1.24988 4.08631  -2
 -12   2  19 1.24988 4.08631   1
  11   2  14 5.52071 5.77715  -2
 -11   2  19 5.52071 5.77715   1
  10   2  15 -2.5750 3.90803  -2
 -10   2  19 -2.5750 3.90803   1
   9   2  15 32.7425 4.00603  -2
  -9   2  19 32.7425 4.00603   1
   7   2  16 55.1731 3.92029  -2
  -7   2  19 55.1731 3.92029   1
   6   2  16 179.261 18.0282  -2
  -6   2  19 179.261 18.0282   1
   5   2  17 9.79343 2.42262  -2
  -5   2  19 9.79343 2.42262   1
   4   2  17 96.9198 5.71862  -2
  -4   2  19 96.9198 5.71862   1
   3   2  18 106.058 4.90779  -2
  -3   2  19 106.058 4.90779   1
   2   2  18 140.023 7.83837  -2
  -2   2  19 140.023 7.83837   1
   1   2  19 -29.906 32.9256  -2
  -1   2  19 -29.906 32.9256   1
   0   2  19 70.2642 3.92080  -2
   0   2  19 70.2642 3.92080   1
  -1   2  19 88.2385 48.0587  -2
   1   2  19 88.2385 48.0587   1
  -2   2  20 91.9827 4.94206  -2
   2   2  19 91.9827 4.94206   1
  -3   2  20 83.5678 4.78352  -2
   3   2  19 83.5678 4.78352   1
  -4   2  21 225.631 8.76888  -2
   4   2  19 225.631 8.76888   1
  -5   2  21 24.0660 3.19919  -2
   5   2  19 24.0660 3.19919   1
  -6   2  22 69.1122 10.6657  -2
   6   2  19 69.1122 10.6657   1
  -6   2  21 92.0025 16.3604  -2
   6   2  19 92.0025 16.3604   1
  -7   2  22 51.8927 3.59599  -2
   7   2  19 51.8927 3.59599   1
  -8   2  22 -9.4655 10.9850  -2
   8   2  19 -9.4655 10.9850   1
  -9   2  23 5.55202 4.58668  -2
   9   2  19 5.55202 4.58668   1
 -10   2  23 8.18837 5.43369  -2
  10   2  19 8.18837 5.43369   1
  12   3  14 37.5350 4.41358  -2
 -12   3  19 37.5350 4.41358   1
  11   3  14 49.9704 7.53653  -2
 -11   3  19 49.9704 7.53653   1
  10   3  15 133.032 7.43801  -2
 -10   3  19 133.032 7.43801   1
   9   3  15 20.6548 4.24379  -2
  -9   3  19 20.6548 4.24379   1
   8   3  16 227.457 22.3824  -2
  -8   3  19 227.457 22.3824   1
   7   3  16 90.8042 5.05382  -2
  -7   3  19 90.8042 5.05382   1
   6   3  16 94.0885 7.30285  -2
  -6   3  19 94.0885 7.30285   1
   5   3  17 115.505 5.37222  -2
  -5   3  19 115.505 5.37222   1
   4   3  17 181.883 8.87400  -2
  -4   3  19 181.883 8.87400   1
   3   3  18 308.369 11.5890  -2
  -3   3  19 308.369 11.5890   1
   2   3  18 164.268 6.48786  -2
  -2   3  19 164.268 6.48786   1
   1   3  19 16.7754 11.2829  -2
  -1   3  19 16.7754 11.2829   1
   0   3  19 102.563 4.80817  -2
   0   3  19 102.563 4.80817   1
  -1   3  19 12.9473 6.95356  -2
   1   3  19 12.9473 6.95356   1
  -2   3  20 262.368 8.88350  -2
   2   3  19 262.368 8.88350   1
  -3   3  20 220.338 7.65090  -2
   3   3  19 220.338 7.65090   1
  -4   3  21 158.332 7.41405  -2
   4   3  19 158.332 7.41405   1
  -5   3  21 24.7596 2.97645  -2
   5   3  19 24.7596 2.97645   1
  -6   3  22 73.1987 12.3139  -2
   6   3  19 73.1987 12.3139   1
  -6   3  21 171.368 21.8578  -2
   6   3  19 171.368 21.8578   1
  -7   3  22 83.4632 4.64596  -2
   7   3  19 83.4632 4.64596   1
  -8   3  22 177.885 10.8764  -2
   8   3  19 177.885 10.8764   1
  -9   3  23 -4.7763 7.58693  -2
   9   3  19 -4.7763 7.58693   1
 -10   3  23 22.2433 5.94846  -2
  10   3  19 22.2433 5.94846   1
  12   4  14 8.09120 4.41292  -2
 -12   4  19 8.09120 4.41292   1
  11   4  14 43.8534 7.23188  -2
 -11   4  19 43.8534 7.23188   1
  10   4  15 11.7056 4.16766  -2
 -10   4  19 11.7056 4.16766   1
   9   4  15 123.092 7.97011  -2
  -9   4  19 123.092 7.97011   1
  -8   4  19 8.11500 7.06537   1
   8   4  16 12.4128 7.68845  -2
  -8   4  19 12.4128 7.68845   1
   7   4  16 37.3160 3.46481  -2
  -7   4  19 37.3160 3.46481   1
   6   4  16 36.5903 46.4739  -2
  -6   4  19 36.5903 46.4739   1
   5   4  17 53.1694 4.33822  -2
  -5   4  19 53.1694 4.33822   1
   4   4  17 9.62033 4.29563  -2
  -4   4  19 9.62033 4.29563   1
   3   4  18 10.5056 4.00359  -2
  -3   4  19 10.5056 4.00359   1
   2   4  18 5.78110 3.99773  -2
  -2   4  19 5.78110 3.99773   1
   1   4  19 48.1109 8.83955  -2
  -1   4  19 48.1109 8.83955   1
   0   4  19 28.0422 2.61953  -2
   0   4  19 28.0422 2.61953   1
  -1   4  19 9.38470 6.34929  -2
   1   4  19 9.38470 6.34929   1
  -2   4  20 6.47410 1.78098  -2
   2   4  19 6.47410 1.78098   1
  -3   4  20 6.38947 3.10431  -2
   3   4  19 6.38947 3.10431   1
  -4   4  21 -2.1791 3.74684  -2
   4   4  19 -2.1791 3.74684   1
  -5   4  21 15.0769 3.47659  -2
   5   4  19 15.0769 3.47659   1
  -6   4  21 23.5224 15.9452  -2
   6   4  19 23.5224 15.9452   1
  -6   4  22 158.682 14.5365  -2
   6   4  19 158.682 14.5365   1
  -7   4  22 5.53035 3.91751  -2
   7   4  19 5.53035 3.91751   1
  -8   4  22 -5.6436 9.66802  -2
   8   4  19 -5.6436 9.66802   1
  -9   4  23 6.75130 5.73681  -2
   9   4  19 6.75130 5.73681   1
 -10   4  23 2.91877 5.33066  -2
  10   4  19 2.91877 5.33066   1
  12   5  14 10.5283 6.13601  -2
 -12   5  19 10.5283 6.13601   1
  11   5  14 8.81092 5.07989  -2
 -11   5  19 8.81092 5.07989   1
  10   5  15 50.6360 5.39410  -2
 -10   5  19 50.6360 5.39410   1
   9   5  15 -1.3301 4.18374  -2
  -9   5  19 -1.3301 4.18374   1
   8   5  16 64.4905 10.5514  -2
  -8   5  19 64.4905 10.5514   1
   7   5  16 39.3672 3.88628  -2
  -7   5  19 39.3672 3.88628   1
   6   5  16 29.4627 15.6503  -2
  -6   5  19 29.4627 15.6503   1
   5   5  17 23.9421 3.67817  -2
  -5   5  19 23.9421 3.67817   1
   4   5  17 0.73509 3.47339  -2
  -4   5  19 0.73509 3.47339   1
   3   5  18 86.9313 4.75628  -2
  -3   5  19 86.9313 4.75628   1
   2   5  18 100.995 4.97947  -2
  -2   5  19 100.995 4.97947   1
   1   5  19 92.6188 7.21291  -2
  -1   5  19 92.6188 7.21291   1
   0   5  19 10.7756 2.01443  -2
   0   5  19 10.7756 2.01443   1
  -1   5  19 98.5581 12.6935  -2
   1   5  19 98.5581 12.6935   1
  -2   5  20 84.2059 4.37795  -2
   2   5  19 84.2059 4.37795   1
  -3   5  20 121.401 5.87758  -2
   3   5  19 121.401 5.87758   1
  -4   5  21 59.4890 5.63106  -2
   4   5  19 59.4890 5.63106   1
  -4   5  20 70.7193 13.1401  -2
   4   5  19 70.7193 13.1401   1
  -5   5  21 14.1836 3.45257  -2
   5   5  19 14.1836 3.45257   1
  -6   5  21 100.153 21.9478  -2
   6   5  19 100.153 21.9478   1
  -7   5  22 34.7791 3.76462  -2
   7   5  19 34.7791 3.76462   1
  -8   5  22 14.1562 7.71524  -2
   8   5  19 14.1562 7.71524   1
  -8   5  23 29.0963 15.5514  -2
  -8   5  22 29.0963 15.5514  -2
   8   5  19 29.0963 15.5514   1
  -9   5  23 -8.8967 6.80515  -2
   9   5  19 -8.8967 6.80515   1
  11   6  14 67.7966 8.06704  -2
 -11   6  19 67.7966 8.06704   1
  10   6  15 8.59601 5.36836  -2
 -10   6  19 8.59601 5.36836   1
   9   6  15 199.043 11.6016  -2
  -9   6  19 199.043 11.6016   1
   8   6  16 37.0973 13.2829  -2
  -8   6  19 37.0973 13.2829   1
   7   6  16 154.570 7.95483  -2
  -7   6  19 154.570 7.95483   1
   6   6  16 133.761 19.5291  -2
  -6   6  19 133.761 19.5291   1
   5   6  17 198.258 8.19249  -2
  -5   6  19 198.258 8.19249   1
   4   6  17 61.2866 5.12813  -2
  -4   6  19 61.2866 5.12813   1
   3   6  18 189.328 8.07699  -2
  -3   6  19 189.328 8.07699   1
   2   6  18 111.553 5.84054  -2
  -2   6  19 111.553 5.84054   1
   1   6  19 111.893 12.2583  -2
  -1   6  19 111.893 12.2583   1
   1   6  18 65.6319 13.6219  -2
  -1   6  19 65.6319 13.6219   1
   0   6  19 5.07604 2.43908  -2
   0   6  19 5.07604 2.43908   1
  -1   6  19 90.9472 11.5811  -2
   1   6  19 90.9472 11.5811   1
  -2   6  20 43.1933 3.78262  -2
   2   6  19 43.1933 3.78262   1
  -3   6  20 20.2721 5.20434  -2
   3   6  19 20.2721 5.20434   1
  -4   6  21 19.2153 11.4404  -2
   4   6  19 19.2153 11.4404   1
  -5   6  21 186.624 8.19137  -2
   5   6  19 186.624 8.19137   1
  -6   6  22 24.8857 15.2842  -2
   6   6  19 24.8857 15.2842   1
  -6   6  21 17.1993 16.3776  -2
   6   6  19 17.1993 16.3776   1
  -7   6  22 58.0992 4.04823  -2
   7   6  19 58.0992 4.04823   1
  -8   6  23 35.6251 15.1803  -2
  -8   6  22 35.6251 15.1803  -2
   8   6  19 35.6251 15.1803   1
  -8   6  22 52.9431 6.90629  -2
   8   6  19 52.9431 6.90629   1
  -9   6  23 135.518 10.6205  -2
   9   6  19 135.518 10.6205   1
  11   7  14 -4.3829 12.1072  -2
 -11   7  19 -4.3829 12.1072   1
  10   7  15 7.32158 5.16205  -2
 -10   7  19 7.32158 5.16205   1
   9   7  15 10.2882 4.50463  -2
  -9   7  19 10.2882 4.50463   1
   8   7  16 42.2918 15.8090  -2
  -8   7  19 42.2918 15.8090   1
   7   7  16 29.0578 3.71950  -2
  -7   7  19 29.0578 3.71950   1
   6   7  16 38.3868 14.3847  -2
  -6   7  19 38.3868 14.3847   1
   5   7  17 -3.6862 3.08330  -2
  -5   7  19 -3.6862 3.08330   1
   4   7  17 12.4743 4.63169  -2
  -4   7  19 12.4743 4.63169   1
   3   7  18 17.7274 6.05485  -2
  -3   7  19 17.7274 6.05485   1
   2   7  18 32.3339 3.90339  -2
  -2   7  19 32.3339 3.90339   1
   1   7  19 17.0284 8.57658  -2
  -1   7  19 17.0284 8.57658   1
   0   7  19 11.9130 3.06318  -2
   0   7  19 11.9130 3.06318   1
  -1   7  19 22.3345 9.17750  -2
   1   7  19 22.3345 9.17750   1
  -2   7  20 17.8992 6.35125  -2
   2   7  19 17.8992 6.35125   1
  -3   7  20 25.4934 7.14818  -2
   3   7  19 25.4934 7.14818   1
  -4   7  21 -3.0084 7.51437  -2
   4   7  19 -3.0084 7.51437   1
  -5   7  21 8.97339 4.31894  -2
   5   7  19 8.97339 4.31894   1
  -7   7  22 10.5725 3.57661  -2
   7   7  19 10.5725 3.57661   1
  -8   7  22 30.1356 8.81031  -2
   8   7  19 30.1356 8.81031   1
  10   8  15 13.0887 6.44060  -2
 -10   8  19 13.0887 6.44060   1
   9   8  15 5.95398 4.77140  -2
  -9   8  19 5.95398 4.77140   1
   7   8  16 2.83310 4.16871  -2
  -7   8  19 2.83310 4.16871   1
   5   8  17 -0.7038 3.51391  -2
  -5   8  19 -0.7038 3.51391   1
   4   8  17 92.7039 7.42939  -2
  -4   8  19 92.7039 7.42939   1
   3   8  18 110.010 10.7219  -2
  -3   8  19 110.010 10.7219   1
   2   8  18 60.5420 5.78742  -2
  -2   8  19 60.5420 5.78742   1
   0   8  19 4.51628 3.39238  -2
   0   8  19 4.51628 3.39238   1
  -1   8  19 24.7805 11.9795  -2
   1   8  19 24.7805 11.9795   1
  -2   8  20 116.536 7.44218  -2
   2   8  19 116.536 7.44218   1
  -3   8  20 39.6422 6.76471  -2
   3   8  19 39.6422 6.76471   1
  -4   8  21 35.0642 6.64763  -2
   4   8  19 35.0642 6.64763   1
  -5   8  21 12.9648 4.32027  -2
   5   8  19 12.9648 4.32027   1
  -6   8  22 22.5219 15.1581  -2
   6   8  19 22.5219 15.1581   1
  -6   8  21 6.14588 15.0715  -2
   6   8  19 6.14588 15.0715   1
  -7   8  22 7.28840 4.05593  -2
   7   8  19 7.28840 4.05593   1
 -10   9  19 21.0181 9.29945   2
  10   9  15 15.0800 5.06985  -2
 -10   9  19 15.0800 5.06985   1
 -10   9  19 8.06637 9.12267   1
   9   9  15 14.6882 4.53300  -2
  -9   9  19 14.6882 4.53300   1
   7   9  16 87.4899 5.49612  -2
  -7   9  19 87.4899 5.49612   1
   5   9  17 0.98499 3.69567  -2
  -5   9  19 0.98499 3.69567   1
   4   9  17 234.678 15.7304  -2
  -4   9  19 234.678 15.7304   1
   3   9  18 138.742 9.08819  -2
  -3   9  19 138.742 9.08819   1
   2   9  18 185.023 8.11208  -2
  -2   9  19 185.023 8.11208   1
   1   9  19 17.3800 13.6954  -2
  -1   9  19 17.3800 13.6954   1
   0   9  19 265.754 11.8843  -2
   0   9  19 265.754 11.8843   1
  -1   9  19 35.2307 11.1989  -2
   1   9  19 35.2307 11.1989   1
  -2   9  20 106.964 8.98669  -2
   2   9  19 106.964 8.98669   1
  -3   9  20 110.232 7.53770  -2
   3   9  19 110.232 7.53770   1
  -4   9  21 115.373 9.44773  -2
   4   9  19 115.373 9.44773   1
  -5   9  21 17.4408 4.53710  -2
   5   9  19 17.4408 4.53710   1
  -6   9  22 26.6333 13.7724  -2
   6   9  19 26.6333 13.7724   1
  -6   9  21 127.136 22.2613  -2
   6   9  19 127.136 22.2613   1
  -7   9  22 72.9307 9.78720  -2
   7   9  19 72.9307 9.78720   1
   9  10  15 23.7653 4.84042  -2
  -9  10  19 23.7653 4.84042   1
   7  10  16 46.0585 4.73566  -2
  -7  10  19 46.0585 4.73566   1
   5  10  17 107.975 6.16037  -2
  -5  10  19 107.975 6.16037   1
   4  10  17 29.5414 6.58497  -2
  -4  10  19 29.5414 6.58497   1
   3  10  18 13.5640 4.38391  -2
  -3  10  19 13.5640 4.38391   1
   2  10  18 12.1577 3.94228  -2
  -2  10  19 12.1577 3.94228   1
   1  10  19 105.396 20.3541  -2
  -1  10  19 105.396 20.3541   1
   0  10  19 2.30484 3.14640  -2
   0  10  19 2.30484 3.14640   1
  -1  10  19 122.893 20.2196  -2
   1  10  19 122.893 20.2196   1
  -2  10  20 19.9190 4.67611  -2
   2  10  19 19.9190 4.67611   1
  -3  10  20 12.9586 5.17716  -2
   3  10  19 12.9586 5.17716   1
  -4  10  21 18.1418 6.29401  -2
   4  10  19 18.1418 6.29401   1
  -5  10  21 60.1197 5.21618  -2
   5  10  19 60.1197 5.21618   1
  -8  11  19 4.94599 4.60974   2
   7  11  16 10.4083 3.87817  -2
  -7  11  19 10.4083 3.87817   1
   5  11  17 1.73921 4.14506  -2
  -5  11  19 1.73921 4.14506   1
   4  11  17 39.4525 6.88498  -2
  -4  11  19 39.4525 6.88498   1
   3  11  18 25.1658 4.78359  -2
  -3  11  19 25.1658 4.78359   1
   2  11  18 7.56916 3.99195  -2
  -2  11  19 7.56916 3.99195   1
   1  11  19 4.91479 12.5987  -2
  -1  11  19 4.91479 12.5987   1
   0  11  19 96.0645 6.57249  -2
   0  11  19 96.0645 6.57249   1
  -2  11  20 8.21642 4.65886  -2
   2  11  19 8.21642 4.65886   1
  -3  11  20 16.1998 5.93498  -2
   3  11  19 16.1998 5.93498   1
  -4  11  21 28.0022 9.81992  -2
   4  11  19 28.0022 9.81992   1
  -5  11  21 -12.892 9.43122  -2
   5  11  19 -12.892 9.43122   1
   5  12  17 78.5872 8.22379  -2
  -5  12  19 78.5872 8.22379   1
   4  12  17 9.28210 8.25607  -2
  -4  12  19 9.28210 8.25607   1
   3  12  18 54.8852 5.29611  -2
  -3  12  19 54.8852 5.29611   1
   2  12  18 38.4337 4.75368  -2
  -2  12  19 38.4337 4.75368   1
   1  12  19 102.708 20.0453  -2
  -1  12  19 102.708 20.0453   1
   0  12  19 -0.4277 3.22384  -2
   0  12  19 -0.4277 3.22384   1
  -2  12  20 21.2774 6.19069  -2
   2  12  19 21.2774 6.19069   1
  -3  12  20 31.8185 14.9224  -2
   3  12  19 31.8185 14.9224   1
   4  12  19 6.30189 3.85499   1
   4  12  19 -10.747 6.71054   2
   2  13  18 0.63225 8.24556  -2
  -2  13  19 0.63225 8.24556   1
   0  13  19 9.39534 5.72959  -2
   0  13  19 9.39534 5.72959   1
   1  13  19 48.5466 13.1913   1
  -1  13  19 41.6510 14.3077  -2
   1  13  19 41.6510 14.3077   1
   2  13  19 18.0120 3.30909   1
   2  13  19 22.6637 3.87534   2
  12   0  15 17.8295 8.86280  -2
 -12   0  20 17.8295 8.86280   1
  11   0  15 -1.8521 6.87307  -2
 -11   0  20 -1.8521 6.87307   1
  10   0  16 125.044 13.6114  -2
 -10   0  20 125.044 13.6114   1
   9   0  16 -0.8595 7.03869  -2
  -9   0  20 -0.8595 7.03869   1
   8   0  17 69.5972 8.24031  -2
  -8   0  20 69.5972 8.24031   1
  -8   0  20 73.2351 40.9805   1
   7   0  17 130.469 7.31241  -2
  -7   0  20 130.469 7.31241   1
   6   0  17 177.027 73.3143  -2
  -6   0  20 177.027 73.3143   1
   5   0  18 2.46355 4.26946  -2
  -5   0  20 2.46355 4.26946   1
   4   0  18 1023.82 69.0873  -2
  -4   0  20 1023.82 69.0873   1
   3   0  19 98.2001 6.97788  -2
  -3   0  20 98.2001 6.97788   1
   2   0  19 148.686 9.74847  -2
  -2   0  20 148.686 9.74847   1
   1   0  20 -19.059 72.9927  -2
  -1   0  20 -19.059 72.9927   1
   0   0  20 846.935 31.9491  -2
   0   0  20 846.935 31.9491   1
  -2   0  21 21.5811 4.24646  -2
   2   0  20 21.5811 4.24646   1
  -3   0  21 265.955 12.6547  -2
   3   0  20 265.955 12.6547   1
  -4   0  22 230.121 15.4410  -2
   4   0  20 230.121 15.4410   1
  -5   0  22 6.07044 4.13877  -2
   5   0  20 6.07044 4.13877   1
  -6   0  23 66.6194 13.1783  -2
   6   0  20 66.6194 13.1783   1
  -7   0  23 -5.1240 3.77109  -2
   7   0  20 -5.1240 3.77109   1
  -8   0  23 -3.0740 10.7298  -2
   8   0  20 -3.0740 10.7298   1
  -9   0  24 -1.2126 6.38520  -2
   9   0  20 -1.2126 6.38520   1
 -10   0  24 108.905 12.3733  -2
  10   0  20 108.905 12.3733   1
  12   1  15 3.99395 4.22990  -2
 -12   1  20 3.99395 4.22990   1
  11   1  15 121.420 12.0286  -2
 -11   1  20 121.420 12.0286   1
  10   1  16 79.8351 7.05195  -2
 -10   1  20 79.8351 7.05195   1
   9   1  16 35.2447 3.86937  -2
  -9   1  20 35.2447 3.86937   1
   8   1  17 18.5109 5.89917  -2
  -8   1  20 18.5109 5.89917   1
   7   1  17 34.7799 3.21455  -2
  -7   1  20 34.7799 3.21455   1
   6   1  17 134.553 48.7507  -2
  -6   1  20 134.553 48.7507   1
   5   1  18 30.8729 3.28623  -2
  -5   1  20 30.8729 3.28623   1
   4   1  18 36.4528 2.19080  -2
  -4   1  20 36.4528 2.19080   1
   3   1  19 20.0680 4.28558  -2
  -3   1  20 20.0680 4.28558   1
   2   1  19 35.9889 3.51233  -2
  -2   1  20 35.9889 3.51233   1
   1   1  20 82.9931 48.2881  -2
  -1   1  20 82.9931 48.2881   1
   0   1  20 9.41979 1.87003  -2
   0   1  20 9.41979 1.87003   1
  -1   1  20 11.6305 48.8397  -2
   1   1  20 11.6305 48.8397   1
  -2   1  21 37.6405 3.28891  -2
   2   1  20 37.6405 3.28891   1
  -3   1  21 -2.0525 3.73984  -2
   3   1  20 -2.0525 3.73984   1
  -4   1  22 4.79560 3.96561  -2
   4   1  20 4.79560 3.96561   1
  -5   1  22 14.7279 3.84006  -2
   5   1  20 14.7279 3.84006   1
  -6   1  23 33.0619 10.1687  -2
   6   1  20 33.0619 10.1687   1
  -7   1  23 17.5679 3.03297  -2
   7   1  20 17.5679 3.03297   1
  -8   1  23 45.2838 8.30359  -2
   8   1  20 45.2838 8.30359   1
  -9   1  24 25.4583 5.17311  -2
   9   1  20 25.4583 5.17311   1
  -9   1  23 33.0592 16.9390  -2
   9   1  20 33.0592 16.9390   1
 -10   1  24 38.3529 5.49328  -2
  10   1  20 38.3529 5.49328   1
  12   2  15 49.1605 5.56761  -2
 -12   2  20 49.1605 5.56761   1
  11   2  15 24.0085 7.27748  -2
 -11   2  20 24.0085 7.27748   1
  10   2  16 18.9920 5.31046  -2
 -10   2  20 18.9920 5.31046   1
   9   2  16 7.86159 4.58043  -2
  -9   2  20 7.86159 4.58043   1
   8   2  17 31.5508 8.40935  -2
  -8   2  20 31.5508 8.40935   1
   7   2  17 41.6269 4.10320  -2
  -7   2  20 41.6269 4.10320   1
   6   2  17 83.3289 63.2586  -2
  -6   2  20 83.3289 63.2586   1
   5   2  18 76.2981 4.04120  -2
  -5   2  20 76.2981 4.04120   1
   4   2  18 20.9858 4.23630  -2
  -4   2  20 20.9858 4.23630   1
   3   2  19 49.0124 6.60231  -2
  -3   2  20 49.0124 6.60231   1
   2   2  19 89.6000 5.20222  -2
  -2   2  20 89.6000 5.20222   1
   1   2  20 230.643 55.4576  -2
  -1   2  20 230.643 55.4576   1
   0   2  20 22.7212 2.87817  -2
   0   2  20 22.7212 2.87817   1
  -1   2  20 210.026 43.7202  -2
   1   2  20 210.026 43.7202   1
  -2   2  21 65.3577 5.41184  -2
   2   2  20 65.3577 5.41184   1
  -3   2  21 43.8897 4.29745  -2
   3   2  20 43.8897 4.29745   1
  -4   2  22 1.97303 4.16115  -2
   4   2  20 1.97303 4.16115   1
  -5   2  22 55.0960 4.61053  -2
   5   2  20 55.0960 4.61053   1
  -6   2  23 -9.7085 11.5279  -2
   6   2  20 -9.7085 11.5279   1
  -7   2  23 21.1132 3.18866  -2
   7   2  20 21.1132 3.18866   1
  -8   2  23 86.9749 16.0068  -2
   8   2  20 86.9749 16.0068   1
  -9   2  24 -11.836 6.35170  -2
   9   2  20 -11.836 6.35170   1
  12   3  15 62.0772 6.09856  -2
 -12   3  20 62.0772 6.09856   1
  11   3  15 43.1963 13.2699  -2
 -11   3  20 43.1963 13.2699   1
  10   3  16 39.4104 6.61040  -2
 -10   3  20 39.4104 6.61040   1
   9   3  16 165.207 10.1760  -2
  -9   3  20 165.207 10.1760   1
   8   3  17 202.740 20.6393  -2
  -8   3  20 202.740 20.6393   1
   7   3  17 139.684 7.52000  -2
  -7   3  20 139.684 7.52000   1
   6   3  17 268.847 55.4755  -2
  -6   3  20 268.847 55.4755   1
   5   3  18 114.457 5.86510  -2
  -5   3  20 114.457 5.86510   1
   4   3  18 106.339 6.34678  -2
  -4   3  20 106.339 6.34678   1
   3   3  19 218.908 9.05595  -2
  -3   3  20 218.908 9.05595   1
   2   3  19 314.496 12.5026  -2
  -2   3  20 314.496 12.5026   1
   1   3  20 165.500 45.6920  -2
  -1   3  20 165.500 45.6920   1
   0   3  20 106.468 4.85227  -2
   0   3  20 106.468 4.85227   1
  -1   3  20 235.896 18.3009  -2
   1   3  20 235.896 18.3009   1
  -2   3  21 255.370 9.31019  -2
   2   3  20 255.370 9.31019   1
  -3   3  21 316.120 10.6631  -2
   3   3  20 316.120 10.6631   1
  -4   3  22 -11.117 4.15854  -2
   4   3  20 -11.117 4.15854   1
  -5   3  22 21.0535 3.81340  -2
   5   3  20 21.0535 3.81340   1
  -6   3  23 101.842 17.1897  -2
   6   3  20 101.842 17.1897   1
  -7   3  23 110.117 6.48388  -2
   7   3  20 110.117 6.48388   1
  -8   3  24 73.0930 14.8396  -2
   8   3  20 73.0930 14.8396   1
  -8   3  23 30.4077 13.3019  -2
   8   3  20 30.4077 13.3019   1
  -9   3  23 49.9586 14.8895  -2
   9   3  20 49.9586 14.8895   1
  -9   3  24 41.9734 6.95738  -2
   9   3  20 41.9734 6.95738   1
  12   4  15 8.22505 4.52639  -2
 -12   4  20 8.22505 4.52639   1
  11   4  15 5.90366 8.28508  -2
 -11   4  20 5.90366 8.28508   1
  10   4  16 5.64667 5.12631  -2
 -10   4  20 5.64667 5.12631   1
   9   4  16 3.17871 4.16444  -2
  -9   4  20 3.17871 4.16444   1
   8   4  16 50.2124 14.5733  -2
  -8   4  20 50.2124 14.5733   1
   8   4  17 20.4482 9.34200  -2
  -8   4  20 20.4482 9.34200   1
   7   4  17 19.4923 3.44956  -2
  -7   4  20 19.4923 3.44956   1
   6   4  17 12.2568 73.8411  -2
  -6   4  20 12.2568 73.8411   1
   5   4  18 20.0169 2.46324  -2
  -5   4  20 20.0169 2.46324   1
   4   4  18 -5.4725 5.67881  -2
  -4   4  20 -5.4725 5.67881   1
   3   4  19 30.8996 3.52884  -2
  -3   4  20 30.8996 3.52884   1
   2   4  19 11.4598 4.71138  -2
  -2   4  20 11.4598 4.71138   1
   1   4  20 -17.793 12.3672  -2
  -1   4  20 -17.793 12.3672   1
   0   4  20 16.7569 2.16535  -2
   0   4  20 16.7569 2.16535   1
  -1   4  20 35.6832 7.84076  -2
   1   4  20 35.6832 7.84076   1
  -2   4  21 1.87719 2.88584  -2
   2   4  20 1.87719 2.88584   1
  -3   4  21 36.8005 3.50668  -2
   3   4  20 36.8005 3.50668   1
  -4   4  22 23.8899 5.14638  -2
   4   4  20 23.8899 5.14638   1
  -5   4  22 51.8735 4.30547  -2
   5   4  20 51.8735 4.30547   1
  -7   4  23 24.5883 3.35965  -2
   7   4  20 24.5883 3.35965   1
  -8   4  23 17.0898 6.53621  -2
   8   4  20 17.0898 6.53621   1
  -9   4  24 49.7867 7.45330  -2
   9   4  20 49.7867 7.45330   1
  11   5  15 32.0957 7.70135  -2
 -11   5  20 32.0957 7.70135   1
  10   5  16 44.1155 6.67808  -2
 -10   5  20 44.1155 6.67808   1
   9   5  16 23.3312 5.52752  -2
  -9   5  20 23.3312 5.52752   1
  -8   5  20 -0.5492 6.15345   1
   7   5  17 11.0591 3.27517  -2
  -7   5  20 11.0591 3.27517   1
   6   5  17 55.3856 14.6293  -2
  -6   5  20 55.3856 14.6293   1
   5   5  18 15.7614 2.92254  -2
  -5   5  20 15.7614 2.92254   1
   4   5  18 52.9731 4.87828  -2
  -4   5  20 52.9731 4.87828   1
   3   5  19 105.386 7.33122  -2
  -3   5  20 105.386 7.33122   1
   2   5  19 98.2363 4.87622  -2
  -2   5  20 98.2363 4.87622   1
   1   5  20 44.5875 4.62353  -2
  -1   5  20 44.5875 4.62353   1
   0   5  20 -1.0998 1.88419  -2
   0   5  20 -1.0998 1.88419   1
  -1   5  20 40.1245 10.6901  -2
   1   5  20 40.1245 10.6901   1
  -2   5  21 22.3405 2.88110  -2
   2   5  20 22.3405 2.88110   1
  -3   5  21 11.2970 4.49303  -2
   3   5  20 11.2970 4.49303   1
  -4   5  22 47.5005 8.05651  -2
   4   5  20 47.5005 8.05651   1
  -5   5  22 81.8737 5.57684  -2
   5   5  20 81.8737 5.57684   1
  -6   5  23 17.0260 10.0583  -2
   6   5  20 17.0260 10.0583   1
  -7   5  23 9.87216 3.01345  -2
   7   5  20 9.87216 3.01345   1
  -8   5  23 4.51314 7.94623  -2
   8   5  20 4.51314 7.94623   1
   8   5  20 -1.5782 6.34885   1
  -9   5  24 -3.3832 7.24057  -2
   9   5  20 -3.3832 7.24057   1
  11   6  15 41.0877 8.73022  -2
 -11   6  20 41.0877 8.73022   1
  10   6  16 91.1116 8.00293  -2
 -10   6  20 91.1116 8.00293   1
   9   6  16 24.6282 6.86475  -2
  -9   6  20 24.6282 6.86475   1
   7   6  17 21.3993 3.69653  -2
  -7   6  20 21.3993 3.69653   1
   6   6  17 7.92383 12.7489  -2
  -6   6  20 7.92383 12.7489   1
   5   6  18 35.1717 3.25534  -2
  -5   6  20 35.1717 3.25534   1
   4   6  18 100.757 8.43870  -2
  -4   6  20 100.757 8.43870   1
   3   6  19 32.3889 6.05659  -2
  -3   6  20 32.3889 6.05659   1
   2   6  19 47.3931 5.09198  -2
  -2   6  20 47.3931 5.09198   1
   1   6  20 43.1035 15.0986  -2
  -1   6  20 43.1035 15.0986   1
   1   6  19 167.685 19.9569  -2
  -1   6  20 167.685 19.9569   1
   0   6  20 334.399 10.8787  -2
   0   6  20 334.399 10.8787   1
  -1   6  20 23.2777 71.5795  -2
   1   6  20 23.2777 71.5795   1
  -2   6  21 137.812 10.9732  -2
   2   6  20 137.812 10.9732   1
  -3   6  21 173.319 12.5909  -2
   3   6  20 173.319 12.5909   1
  -4   6  22 359.417 18.2709  -2
   4   6  20 359.417 18.2709   1
  -5   6  22 5.83952 4.51566  -2
   5   6  20 5.83952 4.51566   1
  -6   6  23 174.208 24.0486  -2
   6   6  20 174.208 24.0486   1
  -7   6  23 24.8080 4.20811  -2
   7   6  20 24.8080 4.20811   1
  -8   6  24 44.9060 13.4181  -2
   8   6  20 44.9060 13.4181   1
  10   7  16 -4.2165 5.63820  -2
 -10   7  20 -4.2165 5.63820   1
   9   7  16 13.8867 4.08750  -2
  -9   7  20 13.8867 4.08750   1
   8   7  17 25.0923 14.7521  -2
  -8   7  20 25.0923 14.7521   1
   7   7  17 42.4467 4.44416  -2
  -7   7  20 42.4467 4.44416   1
   5   7  18 4.02873 3.65131  -2
  -5   7  20 4.02873 3.65131   1
   4   7  18 60.4344 6.32971  -2
  -4   7  20 60.4344 6.32971   1
   3   7  19 20.4610 7.99211  -2
  -3   7  20 20.4610 7.99211   1
   2   7  19 37.1528 4.49000  -2
  -2   7  20 37.1528 4.49000   1
   1   7  20 10.4349 47.6298  -2
  -1   7  20 10.4349 47.6298   1
   0   7  20 9.40978 2.48844  -2
   0   7  20 9.40978 2.48844   1
  -1   7  20 12.0113 13.1248  -2
   1   7  20 12.0113 13.1248   1
  -2   7  21 14.7042 4.68097  -2
   2   7  20 14.7042 4.68097   1
  -3   7  21 16.7737 5.82073  -2
   3   7  20 16.7737 5.82073   1
  -4   7  22 21.4416 7.78209  -2
   4   7  20 21.4416 7.78209   1
  -5   7  22 29.8420 4.98851  -2
   5   7  20 29.8420 4.98851   1
  -6   7  23 43.7318 14.0085  -2
   6   7  20 43.7318 14.0085   1
  -7   7  23 33.0517 4.55005  -2
   7   7  20 33.0517 4.55005   1
   8   7  20 24.7174 9.35143   1
  10   8  16 22.7005 7.32151  -2
 -10   8  20 22.7005 7.32151   1
   9   8  16 42.0709 4.72029  -2
  -9   8  20 42.0709 4.72029   1
   8   8  17 66.6026 16.7065  -2
  -8   8  20 66.6026 16.7065   1
   7   8  17 38.4835 4.41135  -2
  -7   8  20 38.4835 4.41135   1
   5   8  18 22.3739 4.18149  -2
  -5   8  20 22.3739 4.18149   1
   4   8  18 5.75240 5.62457  -2
  -4   8  20 5.75240 5.62457   1
   3   8  19 41.3540 5.45355  -2
  -3   8  20 41.3540 5.45355   1
   2   8  19 103.743 5.36207  -2
  -2   8  20 103.743 5.36207   1
   1   8  20 38.8172 11.2437  -2
  -1   8  20 38.8172 11.2437   1
   1   8  19 32.4811 12.3289  -2
  -1   8  20 32.4811 12.3289   1
   0   8  20 -1.3623 2.73709  -2
   0   8  20 -1.3623 2.73709   1
  -1   8  20 58.9435 10.7220  -2
   1   8  20 58.9435 10.7220   1
  -2   8  21 26.4267 6.25726  -2
   2   8  20 26.4267 6.25726   1
  -3   8  21 20.1187 6.32456  -2
   3   8  20 20.1187 6.32456   1
  -4   8  22 34.2408 8.03955  -2
   4   8  20 34.2408 8.03955   1
  -5   8  22 3.86913 4.35762  -2
   5   8  20 3.86913 4.35762   1
  -6   8  23 37.9646 15.3304  -2
   6   8  20 37.9646 15.3304   1
  -6   8  22 47.6974 16.8506  -2
   6   8  20 47.6974 16.8506   1
  -7   8  23 11.9192 6.88175  -2
   7   8  20 11.9192 6.88175   1
   9   9  16 27.7698 5.30050  -2
  -9   9  20 27.7698 5.30050   1
   7   9  17 77.1615 6.40909  -2
  -7   9  20 77.1615 6.40909   1
   6   9  17 48.3526 15.0501  -2
  -6   9  20 48.3526 15.0501   1
   5   9  18 136.715 7.62415  -2
  -5   9  20 136.715 7.62415   1
   4   9  18 47.3791 9.08352  -2
  -4   9  20 47.3791 9.08352   1
   3   9  19 84.8050 7.37972  -2
  -3   9  20 84.8050 7.37972   1
   2   9  19 119.228 7.34628  -2
  -2   9  20 119.228 7.34628   1
   1   9  20 215.373 30.3781  -2
   1   9  19 215.373 30.3781  -2
  -1   9  20 215.373 30.3781   1
   1   9  20 229.106 28.8227  -2
  -1   9  20 229.106 28.8227   1
   0   9  20 36.3404 4.16152  -2
   0   9  20 36.3404 4.16152   1
  -1   9  20 207.492 26.2373  -2
   1   9  20 207.492 26.2373   1
  -2   9  21 122.536 7.17137  -2
   2   9  20 122.536 7.17137   1
  -3   9  21 43.4005 6.32834  -2
   3   9  20 43.4005 6.32834   1
  -4   9  22 1.78208 7.46623  -2
   4   9  20 1.78208 7.46623   1
  -5   9  22 72.9135 6.07485  -2
   5   9  20 72.9135 6.07485   1
   7  10  17 1.05116 3.44156  -2
  -7  10  20 1.05116 3.44156   1
   5  10  18 15.4861 3.88242  -2
  -5  10  20 15.4861 3.88242   1
   4  10  18 109.565 9.26882  -2
  -4  10  20 109.565 9.26882   1
   3  10  19 10.6926 4.36882  -2
  -3  10  20 10.6926 4.36882   1
   2  10  19 19.6080 4.03120  -2
  -2  10  20 19.6080 4.03120   1
   1  10  20 52.4735 15.2618  -2
  -1  10  20 52.4735 15.2618   1
   0  10  20 68.0657 5.22149  -2
   0  10  20 68.0657 5.22149   1
  -1  10  21 8.17883 15.7461  -2
   1  10  20 8.17883 15.7461   1
  -1  10  20 53.6274 15.4509  -2
   1  10  20 53.6274 15.4509   1
  -2  10  21 16.2977 4.61505  -2
   2  10  20 16.2977 4.61505   1
  -3  10  21 16.0703 5.79818  -2
   3  10  20 16.0703 5.79818   1
  -4  10  22 13.4972 7.16265  -2
   4  10  20 13.4972 7.16265   1
  -5  10  22 55.3355 7.67082  -2
   5  10  20 55.3355 7.67082   1
   7  11  17 6.81935 4.00908  -2
  -7  11  20 6.81935 4.00908   1
   5  11  18 59.3785 5.51761  -2
  -5  11  20 59.3785 5.51761   1
   4  11  18 14.6530 8.63290  -2
  -4  11  20 14.6530 8.63290   1
   3  11  19 26.1043 4.95049  -2
  -3  11  20 26.1043 4.95049   1
   2  11  19 3.35555 3.70952  -2
  -2  11  20 3.35555 3.70952   1
   1  11  20 2.26788 14.8012  -2
  -1  11  20 2.26788 14.8012   1
   0  11  20 20.2205 3.56646  -2
   0  11  20 20.2205 3.56646   1
  -1  11  20 14.8540 13.1015  -2
   1  11  20 14.8540 13.1015   1
  -1  11  21 21.6347 16.2124  -2
   1  11  20 21.6347 16.2124   1
  -2  11  21 28.8804 4.85070  -2
   2  11  20 28.8804 4.85070   1
  -3  11  21 40.1068 9.06208  -2
   3  11  20 40.1068 9.06208   1
   5  12  18 6.62660 7.41957  -2
  -5  12  20 6.62660 7.41957   1
   3  12  19 62.4930 10.2062  -2
  -3  12  20 62.4930 10.2062   1
   2  12  19 16.0050 5.57235  -2
  -2  12  20 16.0050 5.57235   1
   0  12  20 36.3881 4.90307  -2
   0  12  20 36.3881 4.90307   1
  -2  12  21 18.7420 8.01427  -2
   2  12  20 18.7420 8.01427   1
  12   0  16 0.92834 6.96474  -2
 -12   0  21 0.92834 6.96474   1
  11   0  16 18.3717 11.3157  -2
 -11   0  21 18.3717 11.3157   1
  10   0  17 -10.590 10.4189  -2
 -10   0  21 -10.590 10.4189   1
   9   0  17 217.518 25.5071  -2
  -9   0  21 217.518 25.5071   1
   7   0  18 114.116 7.37174  -2
  -7   0  21 114.116 7.37174   1
   6   0  18 203.482 87.8745  -2
  -6   0  21 203.482 87.8745   1
   5   0  19 494.796 22.3661  -2
  -5   0  21 494.796 22.3661   1
   4   0  19 77.1110 11.0454  -2
  -4   0  21 77.1110 11.0454   1
   3   0  20 169.968 9.45792  -2
  -3   0  21 169.968 9.45792   1
   2   0  20 29.5429 4.09234  -2
  -2   0  21 29.5429 4.09234   1
   0   0  21 0.62214 2.72811  -2
   0   0  21 0.62214 2.72811   1
  -2   0  22 62.5984 5.24160  -2
   2   0  21 62.5984 5.24160   1
  -3   0  22 44.2763 5.45997  -2
   3   0  21 44.2763 5.45997   1
  -4   0  23 -4.7870 7.06573  -2
   4   0  21 -4.7870 7.06573   1
  -5   0  23 97.0307 6.45639  -2
   5   0  21 97.0307 6.45639   1
  -6   0  24 6.00136 10.7695  -2
   6   0  21 6.00136 10.7695   1
  -7   0  24 5.64530 4.32718  -2
   7   0  21 5.64530 4.32718   1
  -9   0  25 84.3310 14.8219  -2
   9   0  21 84.3310 14.8219   1
  12   1  16 7.76164 4.40272  -2
 -12   1  21 7.76164 4.40272   1
  11   1  16 -11.799 7.22262  -2
 -11   1  21 -11.799 7.22262   1
  10   1  17 11.6996 7.09216  -2
 -10   1  21 11.6996 7.09216   1
   9   1  17 4.26039 4.79004  -2
  -9   1  21 4.26039 4.79004   1
   7   1  18 55.1563 4.98035  -2
  -7   1  21 55.1563 4.98035   1
   6   1  18 35.2031 51.3821  -2
  -6   1  21 35.2031 51.3821   1
   5   1  19 38.5588 3.43457  -2
  -5   1  21 38.5588 3.43457   1
   4   1  19 21.3374 13.2506  -2
  -4   1  21 21.3374 13.2506   1
   3   1  20 12.6197 4.62465  -2
  -3   1  21 12.6197 4.62465   1
   2   1  20 -0.7197 3.23478  -2
  -2   1  21 -0.7197 3.23478   1
  -1   1  21 21.9272 20.9357   1
   0   1  21 15.8740 2.10524  -2
   0   1  21 15.8740 2.10524   1
  -2   1  22 30.8672 3.22039  -2
   2   1  21 30.8672 3.22039   1
  -3   1  22 77.7533 4.71213  -2
   3   1  21 77.7533 4.71213   1
  -4   1  23 13.9864 5.08934  -2
   4   1  21 13.9864 5.08934   1
  -5   1  23 56.0799 3.21962  -2
   5   1  21 56.0799 3.21962   1
  -6   1  24 25.8281 10.7097  -2
   6   1  21 25.8281 10.7097   1
  -7   1  24 49.9343 4.15219  -2
   7   1  21 49.9343 4.15219   1
  -8   1  24 19.0114 11.9330  -2
   8   1  21 19.0114 11.9330   1
  -9   1  24 35.3928 19.4310  -2
  -9   1  25 35.3928 19.4310  -2
   9   1  21 35.3928 19.4310   1
  -9   1  25 7.55978 5.75008  -2
   9   1  21 7.55978 5.75008   1
  12   2  16 10.8771 5.88899  -2
 -12   2  21 10.8771 5.88899   1
  11   2  16 4.87005 4.81070  -2
 -11   2  21 4.87005 4.81070   1
  10   2  17 31.5729 6.30088  -2
 -10   2  21 31.5729 6.30088   1
   9   2  17 52.9621 5.52287  -2
  -9   2  21 52.9621 5.52287   1
   8   2  18 44.1134 9.38062  -2
  -8   2  21 44.1134 9.38062   1
   7   2  18 23.2588 3.71887  -2
  -7   2  21 23.2588 3.71887   1
   6   2  18 -30.471 51.0879  -2
  -6   2  21 -30.471 51.0879   1
   5   2  19 26.1886 2.92137  -2
  -5   2  21 26.1886 2.92137   1
   4   2  19 118.376 10.9932  -2
  -4   2  21 118.376 10.9932   1
   3   2  20 50.6198 5.99249  -2
  -3   2  21 50.6198 5.99249   1
   2   2  20 54.0218 3.90109  -2
  -2   2  21 54.0218 3.90109   1
   1   2  21 10.9395 69.0919  -2
  -1   2  21 10.9395 69.0919   1
   0   2  21 109.465 5.16030  -2
   0   2  21 109.465 5.16030   1
  -2   2  22 33.9247 4.39840  -2
   2   2  21 33.9247 4.39840   1
  -3   2  22 82.5604 4.98028  -2
   3   2  21 82.5604 4.98028   1
  -4   2  23 11.5874 6.15299  -2
   4   2  21 11.5874 6.15299   1
  -5   2  23 45.6636 3.90864  -2
   5   2  21 45.6636 3.90864   1
  -7   2  24 15.5125 4.01943  -2
   7   2  21 15.5125 4.01943   1
  -8   2  24 4.80897 8.10439  -2
   8   2  21 4.80897 8.10439   1
  -9   2  25 12.6795 5.59562  -2
   9   2  21 12.6795 5.59562   1
  -9   2  24 34.4500 17.0808  -2
  -9   2  25 34.4500 17.0808  -2
   9   2  21 34.4500 17.0808   1
  11   3  16 90.8770 10.8209  -2
 -11   3  21 90.8770 10.8209   1
  10   3  17 94.7532 6.83477  -2
 -10   3  21 94.7532 6.83477   1
   9   3  17 42.4508 6.11984  -2
  -9   3  21 42.4508 6.11984   1
   8   3  18 65.5402 11.1799  -2
  -8   3  21 65.5402 11.1799   1
   7   3  18 223.831 10.6887  -2
  -7   3  21 223.831 10.6887   1
   6   3  18 72.4586 54.9809  -2
  -6   3  21 72.4586 54.9809   1
   5   3  19 26.4279 3.42991  -2
  -5   3  21 26.4279 3.42991   1
   4   3  19 288.387 14.5982  -2
  -4   3  21 288.387 14.5982   1
   3   3  20 409.720 17.1641  -2
  -3   3  21 409.720 17.1641   1
   2   3  20 250.946 8.97642  -2
  -2   3  21 250.946 8.97642   1
   0   3  21 61.3887 4.58540  -2
   0   3  21 61.3887 4.58540   1
  -1   3  21 -4.8434 76.6169  -2
   1   3  21 -4.8434 76.6169   1
  -2   3  22 137.440 6.22452  -2
   2   3  21 137.440 6.22452   1
  -3   3  22 22.6435 3.56386  -2
   3   3  21 22.6435 3.56386   1
  -4   3  23 121.093 9.09547  -2
   4   3  21 121.093 9.09547   1
  -5   3  23 -9.3714 4.03377  -2
   5   3  21 -9.3714 4.03377   1
  -6   3  24 20.8902 14.2732  -2
   6   3  21 20.8902 14.2732   1
  -7   3  24 49.9066 3.90223  -2
   7   3  21 49.9066 3.90223   1
   8   3  21 62.4745 11.7367   1
  -8   3  24 2.82974 12.1327  -2
   8   3  21 2.82974 12.1327   1
  -9   3  24 36.3705 15.8547  -2
   9   3  21 36.3705 15.8547   1
   9   3  21 8.30439 2.89681   1
   9   3  21 9.85420 3.88306   2
  11   4  16 24.7347 6.29564  -2
 -11   4  21 24.7347 6.29564   1
  10   4  17 4.06594 5.95222  -2
 -10   4  21 4.06594 5.95222   1
   9   4  17 0.65532 4.71306  -2
  -9   4  21 0.65532 4.71306   1
   8   4  18 4.90463 8.33100  -2
  -8   4  21 4.90463 8.33100   1
   7   4  18 -2.0749 4.44878  -2
  -7   4  21 -2.0749 4.44878   1
   6   4  18 136.542 88.5023  -2
  -6   4  21 136.542 88.5023   1
   5   4  19 -5.2090 2.52244  -2
  -5   4  21 -5.2090 2.52244   1
   4   4  19 8.73003 5.57616  -2
  -4   4  21 8.73003 5.57616   1
   3   4  20 1.77723 4.69778  -2
  -3   4  21 1.77723 4.69778   1
   2   4  20 14.9424 3.26551  -2
  -2   4  21 14.9424 3.26551   1
   1   4  21 37.9747 16.4123  -2
  -1   4  21 37.9747 16.4123   1
   0   4  21 133.016 5.59403  -2
   0   4  21 133.016 5.59403   1
  -1   4  21 92.7740 9.80558  -2
   1   4  21 92.7740 9.80558   1
  -2   4  22 54.9764 3.91931  -2
   2   4  21 54.9764 3.91931   1
  -3   4  22 59.4384 4.60127  -2
   3   4  21 59.4384 4.60127   1
  -4   4  23 182.763 23.1336  -2
   4   4  21 182.763 23.1336   1
  -5   4  23 63.4846 4.45738  -2
   5   4  21 63.4846 4.45738   1
  -6   4  24 25.6692 12.7648  -2
   6   4  21 25.6692 12.7648   1
  -7   4  24 65.1751 4.55557  -2
   7   4  21 65.1751 4.55557   1
  -8   4  24 6.17551 7.11524  -2
   8   4  21 6.17551 7.11524   1
  11   5  16 19.1157 6.25642  -2
 -11   5  21 19.1157 6.25642   1
  10   5  17 14.2769 4.95085  -2
 -10   5  21 14.2769 4.95085   1
   9   5  17 3.43282 4.16287  -2
  -9   5  21 3.43282 4.16287   1
   7   5  18 -7.0398 3.89920  -2
  -7   5  21 -7.0398 3.89920   1
   5   5  19 2.17680 2.69825  -2
  -5   5  21 2.17680 2.69825   1
   4   5  19 6.62121 5.82128  -2
  -4   5  21 6.62121 5.82128   1
   3   5  20 -0.2759 8.29916  -2
  -3   5  21 -0.2759 8.29916   1
   2   5  20 36.6827 5.05856  -2
  -2   5  21 36.6827 5.05856   1
   1   5  21 2.32861 14.3520  -2
  -1   5  21 2.32861 14.3520   1
   0   5  21 150.125 6.36746  -2
   0   5  21 150.125 6.36746   1
  -1   5  21 -43.231 75.0398  -2
   1   5  21 -43.231 75.0398   1
  -2   5  22 68.7245 4.83206  -2
   2   5  21 68.7245 4.83206   1
  -3   5  22 41.0356 6.48935  -2
   3   5  21 41.0356 6.48935   1
  -4   5  23 41.9191 9.80195  -2
   4   5  21 41.9191 9.80195   1
  -5   5  23 48.3734 6.10754  -2
   5   5  21 48.3734 6.10754   1
  -6   5  24 23.3750 14.6899  -2
   6   5  21 23.3750 14.6899   1
  -7   5  24 23.2530 4.53149  -2
   7   5  21 23.2530 4.53149   1
  -8   5  24 41.5646 8.07323  -2
   8   5  21 41.5646 8.07323   1
  10   6  17 12.4543 5.78371  -2
 -10   6  21 12.4543 5.78371   1
   9   6  17 78.8522 6.26491  -2
  -9   6  21 78.8522 6.26491   1
   7   6  18 25.6600 4.02117  -2
  -7   6  21 25.6600 4.02117   1
   5   6  19 211.947 9.77127  -2
  -5   6  21 211.947 9.77127   1
   4   6  19 42.1233 6.92962  -2
  -4   6  21 42.1233 6.92962   1
   3   6  20 133.265 17.0161  -2
  -3   6  21 133.265 17.0161   1
   2   6  20 204.595 13.1398  -2
  -2   6  21 204.595 13.1398   1
   1   6  20 60.0985 13.7955  -2
  -1   6  21 60.0985 13.7955   1
   0   6  21 37.9603 4.00991  -2
   0   6  21 37.9603 4.00991   1
  -2   6  22 74.6836 6.66566  -2
   2   6  21 74.6836 6.66566   1
  -3   6  22 44.9186 6.94926  -2
   3   6  21 44.9186 6.94926   1
   4   6  21 -0.1912 8.55770   1
  -4   6  23 26.4153 10.2751  -2
   4   6  21 26.4153 10.2751   1
  -5   6  23 150.330 8.37304  -2
   5   6  21 150.330 8.37304   1
  -6   6  24 -6.7161 13.0055  -2
   6   6  21 -6.7161 13.0055   1
  -7   6  24 10.7076 4.37878  -2
   7   6  21 10.7076 4.37878   1
   8   6  21 12.4930 7.64752   1
  10   7  17 27.8962 6.57133  -2
 -10   7  21 27.8962 6.57133   1
   9   7  17 20.5609 4.87388  -2
  -9   7  21 20.5609 4.87388   1
   8   7  18 9.26187 9.05331  -2
  -8   7  21 9.26187 9.05331   1
   7   7  18 42.1451 5.12593  -2
  -7   7  21 42.1451 5.12593   1
   5   7  19 5.48793 3.51499  -2
  -5   7  21 5.48793 3.51499   1
   4   7  19 -1.3393 4.54145  -2
  -4   7  21 -1.3393 4.54145   1
   3   7  20 18.7015 5.11365  -2
  -3   7  21 18.7015 5.11365   1
   2   7  20 19.6179 4.44222  -2
  -2   7  21 19.6179 4.44222   1
   1   7  21 36.8477 10.6118  -2
  -1   7  21 36.8477 10.6118   1
   1   7  20 48.3880 12.7463  -2
  -1   7  21 48.3880 12.7463   1
   0   7  21 9.19325 3.12819  -2
   0   7  21 9.19325 3.12819   1
  -1   7  21 14.0904 9.52456  -2
   1   7  21 14.0904 9.52456   1
  -2   7  22 87.8585 6.66420  -2
   2   7  21 87.8585 6.66420   1
  -3   7  22 63.4398 7.69570  -2
   3   7  21 63.4398 7.69570   1
  -4   7  23 6.92821 7.51486  -2
   4   7  21 6.92821 7.51486   1
  -5   7  23 33.3601 4.52691  -2
   5   7  21 33.3601 4.52691   1
  -6   7  24 72.0309 16.1064  -2
   6   7  21 72.0309 16.1064   1
  -6   7  23 56.2526 18.3089  -2
   6   7  21 56.2526 18.3089   1
  -7   7  24 21.0814 4.61335  -2
   7   7  21 21.0814 4.61335   1
   9   8  17 6.45414 4.83854  -2
  -9   8  21 6.45414 4.83854   1
   8   8  18 26.8352 14.7968  -2
  -8   8  21 26.8352 14.7968   1
   7   8  18 59.4611 5.04800  -2
  -7   8  21 59.4611 5.04800   1
   6   8  18 12.5770 13.5694  -2
  -6   8  21 12.5770 13.5694   1
   5   8  19 17.5625 4.14123  -2
  -5   8  21 17.5625 4.14123   1
   4   8  19 35.6429 9.23318  -2
  -4   8  21 35.6429 9.23318   1
   3   8  20 10.1718 5.40422  -2
  -3   8  21 10.1718 5.40422   1
   2   8  20 25.1651 3.77598  -2
  -2   8  21 25.1651 3.77598   1
   1   8  21 57.1521 10.8755  -2
  -1   8  21 57.1521 10.8755   1
   1   8  20 20.4822 12.2331  -2
  -1   8  21 20.4822 12.2331   1
   0   8  21 6.10781 2.92028  -2
   0   8  21 6.10781 2.92028   1
  -1   8  21 39.2754 14.5650  -2
   1   8  21 39.2754 14.5650   1
  -2   8  22 20.2042 4.54758  -2
   2   8  21 20.2042 4.54758   1
  -3   8  22 0.01128 6.08438  -2
   3   8  21 0.01128 6.08438   1
  -4   8  23 58.5191 9.14277  -2
   4   8  21 58.5191 9.14277   1
  -5   8  23 11.7737 4.14530  -2
   5   8  21 11.7737 4.14530   1
   8   9  18 82.7780 17.4092  -2
   8   9  17 82.7780 17.4092  -2
  -8   9  21 82.7780 17.4092   1
   7   9  18 31.6411 3.95038  -2
  -7   9  21 31.6411 3.95038   1
   5   9  19 27.6671 4.15256  -2
  -5   9  21 27.6671 4.15256   1
   4   9  19 120.249 10.9662  -2
  -4   9  21 120.249 10.9662   1
   3   9  20 68.7918 6.24101  -2
  -3   9  21 68.7918 6.24101   1
   2   9  20 88.8850 5.88073  -2
  -2   9  21 88.8850 5.88073   1
   1   9  21 3.98038 10.4224  -2
  -1   9  21 3.98038 10.4224   1
   1   9  20 127.579 17.6894  -2
  -1   9  21 127.579 17.6894   1
   0   9  21 72.9655 4.88652  -2
   0   9  21 72.9655 4.88652   1
  -1   9  21 9.03120 13.4828  -2
   1   9  21 9.03120 13.4828   1
  -2   9  22 33.1489 4.89777  -2
   2   9  21 33.1489 4.89777   1
  -3   9  22 65.0086 7.11582  -2
   3   9  21 65.0086 7.11582   1
  -4   9  23 12.0347 7.02051  -2
   4   9  21 12.0347 7.02051   1
  -5   9  23 -1.9352 5.91490  -2
   5   9  21 -1.9352 5.91490   1
   7  10  18 -2.3186 4.10900  -2
  -7  10  21 -2.3186 4.10900   1
   6  10  18 36.4896 14.3088  -2
  -6  10  21 36.4896 14.3088   1
   5  10  19 54.0294 5.34142  -2
  -5  10  21 54.0294 5.34142   1
   4  10  19 24.0182 10.0486  -2
  -4  10  21 24.0182 10.0486   1
   3  10  20 23.6108 5.18273  -2
  -3  10  21 23.6108 5.18273   1
   2  10  20 13.8577 4.09084  -2
  -2  10  21 13.8577 4.09084   1
   1  10  21 15.9813 15.4911  -2
  -1  10  21 15.9813 15.4911   1
   1  10  20 26.8257 12.2171  -2
  -1  10  21 26.8257 12.2171   1
  -1  10  21 5.92633 8.94074   1
   0  10  21 36.8507 3.94119  -2
   0  10  21 36.8507 3.94119   1
  -1  10  21 -2.3669 15.1343  -2
   1  10  21 -2.3669 15.1343   1
  -2  10  22 2.59152 4.14691  -2
   2  10  21 2.59152 4.14691   1
  -3  10  22 -3.5349 5.32802  -2
   3  10  21 -3.5349 5.32802   1
  -4  10  23 3.36398 8.65797  -2
   4  10  21 3.36398 8.65797   1
  -6  11  21 14.2906 10.1415   2
   5  11  19 -3.6308 4.94653  -2
  -5  11  21 -3.6308 4.94653   1
   4  11  19 19.5484 12.8044  -2
  -4  11  21 19.5484 12.8044   1
   3  11  20 36.6912 8.00103  -2
  -3  11  21 36.6912 8.00103   1
   2  11  20 42.1187 4.84831  -2
  -2  11  21 42.1187 4.84831   1
   0  11  21 -0.2466 2.78661  -2
   0  11  21 -0.2466 2.78661   1
  -1  11  21 26.4611 13.7903  -2
   1  11  21 26.4611 13.7903   1
  -2  11  22 37.5286 7.67068  -2
   2  11  21 37.5286 7.67068   1
  -3  11  22 -11.760 10.4103  -2
   3  11  21 -11.760 10.4103   1
  -3  12  21 8.18354 4.09845   1
  -3  12  21 5.34282 9.07064   2
   3  12  20 15.7710 15.7394  -2
  -3  12  21 15.7710 15.7394   1
   2  12  20 20.6976 6.56168  -2
  -2  12  21 20.6976 6.56168   1
  -1  12  21 44.5033 10.8097   2
   0  12  21 8.88223 4.48726  -2
   0  12  21 8.88223 4.48726   1
  -1  12  21 10.6982 13.7123  -2
   1  12  21 10.6982 13.7123   1
  11   0  17 38.8462 12.4964  -2
 -11   0  22 38.8462 12.4964   1
  10   0  18 170.513 15.2382  -2
 -10   0  22 170.513 15.2382   1
   9   0  18 7.49553 8.11182  -2
  -9   0  22 7.49553 8.11182   1
   7   0  19 14.2163 7.08011  -2
  -7   0  22 14.2163 7.08011   1
   6   0  19 35.0996 79.1754  -2
  -6   0  22 35.0996 79.1754   1
   5   0  20 9.24844 4.22970  -2
  -5   0  22 9.24844 4.22970   1
   4   0  20 147.355 10.7004  -2
  -4   0  22 147.355 10.7004   1
   3   0  21 48.9189 11.0730  -2
  -3   0  22 48.9189 11.0730   1
   2   0  21 45.6850 4.03550  -2
  -2   0  22 45.6850 4.03550   1
   0   0  22 33.7679 3.60132  -2
   0   0  22 33.7679 3.60132   1
  -2   0  23 -3.3303 3.83523  -2
   2   0  22 -3.3303 3.83523   1
  -3   0  23 61.3648 8.27527  -2
   3   0  22 61.3648 8.27527   1
  -4   0  24 90.5498 10.7984  -2
   4   0  22 90.5498 10.7984   1
  -5   0  24 -5.7591 4.15298  -2
   5   0  22 -5.7591 4.15298   1
  -7   0  25 8.73319 3.75803  -2
   7   0  22 8.73319 3.75803   1
  -8   0  25 37.2125 19.5736  -2
  -8   0  26 37.2125 19.5736  -2
   8   0  22 37.2125 19.5736   1
  -8   0  25 37.3752 12.6895  -2
   8   0  22 37.3752 12.6895   1
  11   1  17 -3.5234 7.86287  -2
 -11   1  22 -3.5234 7.86287   1
  10   1  18 32.8575 7.02172  -2
 -10   1  22 32.8575 7.02172   1
   9   1  18 3.68486 6.64636  -2
  -9   1  22 3.68486 6.64636   1
   7   1  19 9.37930 3.80612  -2
  -7   1  22 9.37930 3.80612   1
   6   1  19 148.177 83.0016  -2
  -6   1  22 148.177 83.0016   1
   5   1  20 37.8643 2.99268  -2
  -5   1  22 37.8643 2.99268   1
   4   1  20 28.1826 13.6151  -2
  -4   1  22 28.1826 13.6151   1
   3   1  21 103.519 5.92372  -2
  -3   1  22 103.519 5.92372   1
   2   1  21 41.1025 3.73337  -2
  -2   1  22 41.1025 3.73337   1
   0   1  22 21.4787 2.42495  -2
   0   1  22 21.4787 2.42495   1
  -1   1  22 30.3795 87.1816  -2
   1   1  22 30.3795 87.1816   1
  -2   1  23 34.5519 3.20668  -2
   2   1  22 34.5519 3.20668   1
  -3   1  23 29.3156 4.37418  -2
   3   1  22 29.3156 4.37418   1
  -4   1  24 54.9887 5.52755  -2
   4   1  22 54.9887 5.52755   1
  -5   1  24 12.7826 3.46107  -2
   5   1  22 12.7826 3.46107   1
  -7   1  25 5.29085 3.39121  -2
   7   1  22 5.29085 3.39121   1
  -8   1  25 10.8852 11.6218  -2
   8   1  22 10.8852 11.6218   1
  11   2  17 8.25645 8.15529  -2
 -11   2  22 8.25645 8.15529   1
  10   2  18 3.63345 5.54253  -2
 -10   2  22 3.63345 5.54253   1
   9   2  18 45.2038 5.23709  -2
  -9   2  22 45.2038 5.23709   1
   7   2  19 17.7819 5.67010  -2
  -7   2  22 17.7819 5.67010   1
   6   2  19 266.949 101.360  -2
  -6   2  22 266.949 101.360   1
   5   2  20 36.9908 4.47132  -2
  -5   2  22 36.9908 4.47132   1
   4   2  20 -4.4143 8.63823  -2
  -4   2  22 -4.4143 8.63823   1
   3   2  21 75.0231 14.4487  -2
  -3   2  22 75.0231 14.4487   1
   2   2  21 23.2591 3.29245  -2
  -2   2  22 23.2591 3.29245   1
   0   2  22 62.5980 3.94988  -2
   0   2  22 62.5980 3.94988   1
  -1   2  22 -3.7872 58.2095  -2
   1   2  22 -3.7872 58.2095   1
  -2   2  23 36.4403 4.71226  -2
   2   2  22 36.4403 4.71226   1
  -3   2  23 19.9763 4.69172  -2
   3   2  22 19.9763 4.69172   1
  -4   2  24 98.1145 10.7272  -2
   4   2  22 98.1145 10.7272   1
  -5   2  24 11.1785 4.20016  -2
   5   2  22 11.1785 4.20016   1
  -7   2  25 19.3599 3.49181  -2
   7   2  22 19.3599 3.49181   1
   8   2  22 -5.6796 5.56328   1
  -8   2  25 15.7589 12.9977  -2
   8   2  22 15.7589 12.9977   1
  11   3  17 28.7590 8.82330  -2
 -11   3  22 28.7590 8.82330   1
  10   3  18 5.25947 5.11261  -2
 -10   3  22 5.25947 5.11261   1
   9   3  18 85.3638 6.49645  -2
  -9   3  22 85.3638 6.49645   1
   7   3  19 42.0505 4.59400  -2
  -7   3  22 42.0505 4.59400   1
   6   3  19 -21.937 94.7069  -2
  -6   3  22 -21.937 94.7069   1
   5   3  20 55.8263 4.21062  -2
  -5   3  22 55.8263 4.21062   1
   4   3  20 26.6012 7.04991  -2
  -4   3  22 26.6012 7.04991   1
   3   3  21 42.0692 6.97792  -2
  -3   3  22 42.0692 6.97792   1
   2   3  21 150.477 7.61103  -2
  -2   3  22 150.477 7.61103   1
   1   3  22 325.168 112.207  -2
  -1   3  22 325.168 112.207   1
   0   3  22 10.0754 2.45724  -2
   0   3  22 10.0754 2.45724   1
  -1   3  22 169.853 92.0949  -2
   1   3  22 169.853 92.0949   1
  -2   3  23 176.749 11.0183  -2
   2   3  22 176.749 11.0183   1
  -3   3  23 201.562 13.1872  -2
   3   3  22 201.562 13.1872   1
  -4   3  24 37.1667 9.66126  -2
   4   3  22 37.1667 9.66126   1
  -5   3  24 17.6480 4.20696  -2
   5   3  22 17.6480 4.20696   1
  -6   3  25 31.1599 14.2763  -2
   6   3  22 31.1599 14.2763   1
  -7   3  25 11.4342 3.59793  -2
   7   3  22 11.4342 3.59793   1
  -8   3  25 21.3331 8.89830  -2
   8   3  22 21.3331 8.89830   1
  11   4  17 0.29956 8.11293  -2
 -11   4  22 0.29956 8.11293   1
  10   4  18 3.38569 6.22647  -2
 -10   4  22 3.38569 6.22647   1
   9   4  18 12.7139 4.49849  -2
  -9   4  22 12.7139 4.49849   1
   7   4  19 4.53335 3.73530  -2
  -7   4  22 4.53335 3.73530   1
   5   4  20 60.5272 3.48301  -2
  -5   4  22 60.5272 3.48301   1
   4   4  20 44.6649 6.41679  -2
  -4   4  22 44.6649 6.41679   1
   3   4  21 47.7025 7.93862  -2
  -3   4  22 47.7025 7.93862   1
   2   4  21 43.2482 3.92168  -2
  -2   4  22 43.2482 3.92168   1
   1   4  22 130.839 65.9990  -2
  -1   4  22 130.839 65.9990   1
   0   4  22 0.09552 2.61013  -2
   0   4  22 0.09552 2.61013   1
  -1   4  22 179.222 70.1370  -2
   1   4  22 179.222 70.1370   1
  -2   4  23 149.226 7.58119  -2
   2   4  22 149.226 7.58119   1
  -3   4  23 19.7441 8.77535  -2
   3   4  22 19.7441 8.77535   1
  -4   4  24 -11.077 9.57695  -2
   4   4  22 -11.077 9.57695   1
  -5   4  24 154.796 7.52541  -2
   5   4  22 154.796 7.52541   1
  -7   4  25 4.03993 3.41433  -2
   7   4  22 4.03993 3.41433   1
  -8   4  25 42.7930 8.15257  -2
   8   4  22 42.7930 8.15257   1
  10   5  18 10.3285 5.48713  -2
 -10   5  22 10.3285 5.48713   1
   9   5  18 40.8345 6.35652  -2
  -9   5  22 40.8345 6.35652   1
   7   5  19 18.6710 3.90632  -2
  -7   5  22 18.6710 3.90632   1
   6   5  19 130.828 109.068  -2
  -6   5  22 130.828 109.068   1
   5   5  20 122.027 7.17519  -2
  -5   5  22 122.027 7.17519   1
   4   5  20 42.9392 6.00097  -2
  -4   5  22 42.9392 6.00097   1
   3   5  21 20.9444 6.79509  -2
  -3   5  22 20.9444 6.79509   1
   2   5  21 70.3907 5.60921  -2
  -2   5  22 70.3907 5.60921   1
   0   5  22 85.9940 5.14155  -2
   0   5  22 85.9940 5.14155   1
  -2   5  23 23.4899 6.60400  -2
   2   5  22 23.4899 6.60400   1
  -3   5  23 55.8159 7.03929  -2
   3   5  22 55.8159 7.03929   1
  -4   5  24 102.085 10.4937  -2
   4   5  22 102.085 10.4937   1
  -5   5  24 8.60150 4.18967  -2
   5   5  22 8.60150 4.18967   1
  -6   5  25 78.4919 17.1500  -2
   6   5  22 78.4919 17.1500   1
  -7   5  25 32.3993 4.66385  -2
   7   5  22 32.3993 4.66385   1
 -10   6  22 42.7562 13.2118   2
 -10   6  22 6.95880 6.62638   1
  10   6  18 81.4896 12.7860  -2
 -10   6  22 81.4896 12.7860   1
   9   6  18 12.8098 5.01138  -2
  -9   6  22 12.8098 5.01138   1
   8   6  18 55.4110 15.6460  -2
  -8   6  22 55.4110 15.6460   1
   7   6  19 77.0353 5.77112  -2
  -7   6  22 77.0353 5.77112   1
   6   6  19 -17.475 13.4947  -2
  -6   6  22 -17.475 13.4947   1
   5   6  20 3.44625 3.63211  -2
  -5   6  22 3.44625 3.63211   1
   4   6  20 338.740 19.7251  -2
  -4   6  22 338.740 19.7251   1
   3   6  21 41.6783 6.78065  -2
  -3   6  22 41.6783 6.78065   1
   2   6  21 50.9886 5.78232  -2
  -2   6  22 50.9886 5.78232   1
   1   6  22 29.4205 14.8408  -2
  -1   6  22 29.4205 14.8408   1
   1   6  21 299.826 30.2560  -2
  -1   6  22 299.826 30.2560   1
   0   6  22 275.220 10.0588  -2
   0   6  22 275.220 10.0588   1
  -1   6  22 47.4598 15.3421  -2
   1   6  22 47.4598 15.3421   1
  -2   6  23 21.4823 4.88327  -2
   2   6  22 21.4823 4.88327   1
  -3   6  23 30.9209 6.60266  -2
   3   6  22 30.9209 6.60266   1
  -4   6  24 23.8713 9.39145  -2
   4   6  22 23.8713 9.39145   1
  -5   6  24 2.66019 3.96650  -2
   5   6  22 2.66019 3.96650   1
  -7   6  25 20.6215 4.18328  -2
   7   6  22 20.6215 4.18328   1
   9   7  18 8.16576 4.75524  -2
  -9   7  22 8.16576 4.75524   1
   7   7  19 6.84242 3.13141  -2
  -7   7  22 6.84242 3.13141   1
   5   7  20 33.9663 4.23269  -2
  -5   7  22 33.9663 4.23269   1
   4   7  20 23.1552 7.26416  -2
  -4   7  22 23.1552 7.26416   1
   3   7  21 54.3357 6.82612  -2
  -3   7  22 54.3357 6.82612   1
   2   7  21 77.4012 7.01433  -2
  -2   7  22 77.4012 7.01433   1
   1   7  22 80.1200 12.4533  -2
  -1   7  22 80.1200 12.4533   1
   0   7  22 31.4529 3.45089  -2
   0   7  22 31.4529 3.45089   1
  -2   7  23 66.1529 6.51811  -2
   2   7  22 66.1529 6.51811   1
  -3   7  23 106.442 7.32485  -2
   3   7  22 106.442 7.32485   1
  -4   7  24 46.1543 8.73711  -2
   4   7  22 46.1543 8.73711   1
  -5   7  24 15.5743 3.85807  -2
   5   7  22 15.5743 3.85807   1
   8   8  19 36.2953 16.0695  -2
   8   8  18 36.2953 16.0695  -2
  -8   8  22 36.2953 16.0695   1
   7   8  19 2.49378 3.76731  -2
  -7   8  22 2.49378 3.76731   1
   6   8  19 23.1313 14.6798  -2
  -6   8  22 23.1313 14.6798   1
   5   8  20 10.2780 3.82320  -2
  -5   8  22 10.2780 3.82320   1
   4   8  20 11.6577 8.57228  -2
  -4   8  22 11.6577 8.57228   1
   3   8  21 8.02504 5.30588  -2
  -3   8  22 8.02504 5.30588   1
   2   8  21 19.7395 4.63883  -2
  -2   8  22 19.7395 4.63883   1
   1   8  22 33.2246 11.1863  -2
  -1   8  22 33.2246 11.1863   1
   1   8  21 63.7452 14.2120  -2
  -1   8  22 63.7452 14.2120   1
   0   8  22 36.2915 4.04949  -2
   0   8  22 36.2915 4.04949   1
  -1   8  22 27.7927 14.2044  -2
   1   8  22 27.7927 14.2044   1
  -2   8  23 28.6762 4.81325  -2
   2   8  22 28.6762 4.81325   1
  -3   8  23 80.7783 7.47055  -2
   3   8  22 80.7783 7.47055   1
  -4   8  24 44.1552 8.05442  -2
   4   8  22 44.1552 8.05442   1
  -5   8  24 32.2055 5.34081  -2
   5   8  22 32.2055 5.34081   1
   7   9  19 44.9337 5.00911  -2
  -7   9  22 44.9337 5.00911   1
   5   9  20 69.8326 5.10928  -2
  -5   9  22 69.8326 5.10928   1
   4   9  20 -2.0521 8.65183  -2
  -4   9  22 -2.0521 8.65183   1
   3   9  21 60.4465 6.25611  -2
  -3   9  22 60.4465 6.25611   1
   2   9  21 51.9960 5.36164  -2
  -2   9  22 51.9960 5.36164   1
   1   9  21 11.4093 11.4108  -2
  -1   9  22 11.4093 11.4108   1
   1   9  22 19.3485 13.6450  -2
  -1   9  22 19.3485 13.6450   1
   0   9  22 8.20687 2.85139  -2
   0   9  22 8.20687 2.85139   1
  -1   9  22 31.5882 9.87358  -2
   1   9  22 31.5882 9.87358   1
  -2   9  23 16.1728 4.64707  -2
   2   9  22 16.1728 4.64707   1
  -3   9  23 26.0340 6.12133  -2
   3   9  22 26.0340 6.12133   1
  -4   9  24 43.0817 15.9932  -2
   4   9  22 43.0817 15.9932   1
   6  10  19 22.4225 13.5630  -2
  -6  10  22 22.4225 13.5630   1
   5  10  20 33.7888 6.69981  -2
  -5  10  22 33.7888 6.69981   1
   4  10  20 -13.487 9.46339  -2
  -4  10  22 -13.487 9.46339   1
   3  10  21 11.9364 6.41678  -2
  -3  10  22 11.9364 6.41678   1
   2  10  21 2.81576 4.22592  -2
  -2  10  22 2.81576 4.22592   1
   1  10  22 47.4442 17.6664  -2
   1  10  21 47.4442 17.6664  -2
  -1  10  22 47.4442 17.6664   1
   1  10  22 16.8571 15.1855  -2
  -1  10  22 16.8571 15.1855   1
   0  10  22 3.59022 3.18477  -2
   0  10  22 3.59022 3.18477   1
  -1  10  22 13.3462 13.9688  -2
   1  10  22 13.3462 13.9688   1
  -2  10  23 -4.3872 5.66130  -2
   2  10  22 -4.3872 5.66130   1
  -3  10  23 10.7865 8.68193  -2
   3  10  22 10.7865 8.68193   1
   3  11  21 22.7225 8.08374  -2
  -3  11  22 22.7225 8.08374   1
   2  11  21 30.7092 11.4437  -2
  -2  11  22 30.7092 11.4437   1
   1  11  22 59.8416 15.5327  -2
   1  11  21 59.8416 15.5327  -2
  -1  11  22 59.8416 15.5327   1
   0  11  22 22.7628 4.68218  -2
   0  11  22 22.7628 4.68218   1
  -1  11  22 43.3274 14.5558  -2
   1  11  22 43.3274 14.5558   1
  11   0  18 -10.153 11.6904  -2
 -11   0  23 -10.153 11.6904   1
  10   0  19 1.93057 11.1296  -2
 -10   0  23 1.93057 11.1296   1
   9   0  19 102.377 12.3317  -2
  -9   0  23 102.377 12.3317   1
   7   0  20 -0.7645 5.62227  -2
  -7   0  23 -0.7645 5.62227   1
   5   0  21 138.680 12.5798  -2
  -5   0  23 138.680 12.5798   1
   4   0  21 -19.534 78.1580  -2
  -4   0  23 -19.534 78.1580   1
   3   0  22 48.5633 10.9321  -2
  -3   0  23 48.5633 10.9321   1
   2   0  22 21.7943 4.94322  -2
  -2   0  23 21.7943 4.94322   1
   0   0  23 -10.191 3.21116  -2
   0   0  23 -10.191 3.21116   1
  -2   0  24 14.6771 6.77115  -2
   2   0  23 14.6771 6.77115   1
  -3   0  24 -11.380 7.11807  -2
   3   0  23 -11.380 7.11807   1
  -4   0  25 -12.060 5.06679  -2
   4   0  23 -12.060 5.06679   1
  -5   0  25 42.8232 5.67101  -2
   5   0  23 42.8232 5.67101   1
  -7   0  26 -1.4668 6.41980  -2
   7   0  23 -1.4668 6.41980   1
  10   1  19 3.00107 5.41644  -2
 -10   1  23 3.00107 5.41644   1
   9   1  19 32.9722 6.32942  -2
  -9   1  23 32.9722 6.32942   1
   7   1  20 21.3810 4.75511  -2
  -7   1  23 21.3810 4.75511   1
   6   1  20 75.5576 97.0308  -2
  -6   1  23 75.5576 97.0308   1
   5   1  21 17.8460 4.27173  -2
  -5   1  23 17.8460 4.27173   1
   4   1  21 -30.106 50.9426  -2
  -4   1  23 -30.106 50.9426   1
   3   1  22 51.7346 4.53985  -2
  -3   1  23 51.7346 4.53985   1
   2   1  22 36.8748 3.74094  -2
  -2   1  23 36.8748 3.74094   1
   0   1  23 15.3915 2.48240  -2
   0   1  23 15.3915 2.48240   1
  -1   1  23 -23.946 69.6836  -2
   1   1  23 -23.946 69.6836   1
  -2   1  24 18.4916 4.13981  -2
   2   1  23 18.4916 4.13981   1
  -3   1  24 38.5153 4.02498  -2
   3   1  23 38.5153 4.02498   1
  -4   1  25 -0.0534 5.71193  -2
   4   1  23 -0.0534 5.71193   1
  -5   1  25 95.7735 4.96107  -2
   5   1  23 95.7735 4.96107   1
  -7   1  26 32.1805 3.96601  -2
   7   1  23 32.1805 3.96601   1
  10   2  19 8.09974 6.21821  -2
 -10   2  23 8.09974 6.21821   1
   9   2  19 2.68226 6.48326  -2
  -9   2  23 2.68226 6.48326   1
   7   2  20 9.42353 4.52450  -2
  -7   2  23 9.42353 4.52450   1
   6   2  20 -93.359 97.4197  -2
  -6   2  23 -93.359 97.4197   1
   5   2  21 7.60105 2.85005  -2
  -5   2  23 7.60105 2.85005   1
   4   2  21 202.856 64.7232  -2
  -4   2  23 202.856 64.7232   1
   3   2  22 22.7914 15.6608  -2
  -3   2  23 22.7914 15.6608   1
   2   2  22 48.6511 4.24212  -2
  -2   2  23 48.6511 4.24212   1
   0   2  23 7.67455 2.71106  -2
   0   2  23 7.67455 2.71106   1
  -2   2  24 48.1460 4.22344  -2
   2   2  23 48.1460 4.22344   1
  -3   2  24 29.0770 4.87831  -2
   3   2  23 29.0770 4.87831   1
  -4   2  25 50.4030 7.51573  -2
   4   2  23 50.4030 7.51573   1
  -5   2  25 65.8776 5.05279  -2
   5   2  23 65.8776 5.05279   1
  -7   2  26 47.6051 4.55954  -2
   7   2  23 47.6051 4.55954   1
  10   3  19 39.0966 7.33287  -2
 -10   3  23 39.0966 7.33287   1
   9   3  19 6.98720 5.47245  -2
  -9   3  23 6.98720 5.47245   1
   7   3  20 147.271 7.16375  -2
  -7   3  23 147.271 7.16375   1
   6   3  20 -76.360 96.8666  -2
  -6   3  23 -76.360 96.8666   1
   5   3  21 24.0746 4.24057  -2
  -5   3  23 24.0746 4.24057   1
   4   3  21 204.336 24.8493  -2
  -4   3  23 204.336 24.8493   1
   3   3  22 174.114 13.1232  -2
  -3   3  23 174.114 13.1232   1
   2   3  22 175.083 7.78891  -2
  -2   3  23 175.083 7.78891   1
   0   3  23 33.4347 3.42713  -2
   0   3  23 33.4347 3.42713   1
  -1   3  23 98.4942 111.442  -2
   1   3  23 98.4942 111.442   1
  -2   3  24 59.8280 6.83148  -2
   2   3  23 59.8280 6.83148   1
  -3   3  24 24.8410 7.76204  -2
   3   3  23 24.8410 7.76204   1
  -4   3  25 4.73890 7.27326  -2
   4   3  23 4.73890 7.27326   1
  -5   3  25 3.84448 3.94922  -2
   5   3  23 3.84448 3.94922   1
  -7   3  26 -0.1439 3.75532  -2
   7   3  23 -0.1439 3.75532   1
  10   4  19 -0.4250 6.45305  -2
 -10   4  23 -0.4250 6.45305   1
   9   4  19 16.6271 4.74310  -2
  -9   4  23 16.6271 4.74310   1
   7   4  20 22.3604 3.63732  -2
  -7   4  23 22.3604 3.63732   1
   5   4  21 48.1452 4.82522  -2
  -5   4  23 48.1452 4.82522   1
   4   4  21 149.547 21.1825  -2
  -4   4  23 149.547 21.1825   1
   3   4  22 35.1028 6.22051  -2
  -3   4  23 35.1028 6.22051   1
   2   4  22 86.1511 6.04495  -2
  -2   4  23 86.1511 6.04495   1
   0   4  23 163.150 7.40766  -2
   0   4  23 163.150 7.40766   1
  -2   4  24 9.08374 5.82911  -2
   2   4  23 9.08374 5.82911   1
  -3   4  24 42.7528 6.59380  -2
   3   4  23 42.7528 6.59380   1
  -4   4  25 26.3159 7.44805  -2
   4   4  23 26.3159 7.44805   1
  -5   4  25 14.4555 4.68255  -2
   5   4  23 14.4555 4.68255   1
  -7   4  26 12.2937 4.39544  -2
   7   4  23 12.2937 4.39544   1
   9   5  19 -0.7302 5.81764  -2
  -9   5  23 -0.7302 5.81764   1
   7   5  20 11.2532 3.23346  -2
  -7   5  23 11.2532 3.23346   1
   6   5  20 -14.969 13.5017  -2
  -6   5  23 -14.969 13.5017   1
   5   5  21 55.7369 4.62640  -2
  -5   5  23 55.7369 4.62640   1
   4   5  21 49.3168 14.8504  -2
  -4   5  23 49.3168 14.8504   1
   3   5  22 39.9777 7.10026  -2
  -3   5  23 39.9777 7.10026   1
   2   5  22 40.7885 4.36833  -2
  -2   5  23 40.7885 4.36833   1
   0   5  23 -1.0473 3.49678  -2
   0   5  23 -1.0473 3.49678   1
  -2   5  24 9.02239 4.18658  -2
   2   5  23 9.02239 4.18658   1
  -3   5  24 1.39938 5.28857  -2
   3   5  23 1.39938 5.28857   1
  -4   5  25 10.7622 8.04298  -2
   4   5  23 10.7622 8.04298   1
  -5   5  25 22.1012 4.44056  -2
   5   5  23 22.1012 4.44056   1
  -6   5  26 3.36595 8.63669  -2
   6   5  23 3.36595 8.63669   1
   9   6  19 138.034 9.12935  -2
  -9   6  23 138.034 9.12935   1
   8   6  19 -19.604 13.2372  -2
  -8   6  23 -19.604 13.2372   1
   7   6  20 17.8952 4.29998  -2
  -7   6  23 17.8952 4.29998   1
   5   6  21 155.242 7.51313  -2
  -5   6  23 155.242 7.51313   1
   4   6  21 41.3602 8.65002  -2
  -4   6  23 41.3602 8.65002   1
   3   6  22 34.0940 6.87022  -2
  -3   6  23 34.0940 6.87022   1
   2   6  22 22.9074 4.32799  -2
  -2   6  23 22.9074 4.32799   1
   1   6  23 -0.2630 10.0008  -2
  -1   6  23 -0.2630 10.0008   1
   0   6  23 12.3703 3.40901  -2
   0   6  23 12.3703 3.40901   1
  -1   6  23 0.10389 14.8314  -2
   1   6  23 0.10389 14.8314   1
  -2   6  24 11.1315 4.25447  -2
   2   6  23 11.1315 4.25447   1
  -3   6  24 28.0117 7.20907  -2
   3   6  23 28.0117 7.20907   1
  -4   6  25 55.6392 9.78203  -2
   4   6  23 55.6392 9.78203   1
  -5   6  25 9.05594 4.03259  -2
   5   6  23 9.05594 4.03259   1
   6   6  23 2.50609 4.20363   1
   7   7  20 28.6203 3.67960  -2
  -7   7  23 28.6203 3.67960   1
   5   7  21 32.2862 5.06682  -2
  -5   7  23 32.2862 5.06682   1
   4   7  21 -3.7412 9.59564  -2
  -4   7  23 -3.7412 9.59564   1
   3   7  22 85.2200 8.01808  -2
  -3   7  23 85.2200 8.01808   1
   2   7  22 92.2602 6.78734  -2
  -2   7  23 92.2602 6.78734   1
   1   7  23 79.6896 19.2400  -2
  -1   7  23 79.6896 19.2400   1
   0   7  23 63.6934 5.08955  -2
   0   7  23 63.6934 5.08955   1
  -2   7  24 99.2527 6.57072  -2
   2   7  23 99.2527 6.57072   1
  -3   7  24 127.969 8.60916  -2
   3   7  23 127.969 8.60916   1
  -4   7  25 43.2538 8.71176  -2
   4   7  23 43.2538 8.71176   1
  -5   7  25 18.7265 4.59556  -2
   5   7  23 18.7265 4.59556   1
   7   8  20 15.4878 4.38210  -2
  -7   8  23 15.4878 4.38210   1
   6   8  20 27.3450 14.7435  -2
  -6   8  23 27.3450 14.7435   1
   5   8  21 22.3424 3.91566  -2
  -5   8  23 22.3424 3.91566   1
   4   8  21 51.0348 10.1890  -2
  -4   8  23 51.0348 10.1890   1
   3   8  22 85.2823 6.97657  -2
  -3   8  23 85.2823 6.97657   1
   2   8  22 29.8053 5.07922  -2
  -2   8  23 29.8053 5.07922   1
   1   8  23 28.0141 16.7692  -2
  -1   8  23 28.0141 16.7692   1
   1   8  22 32.3587 12.1546  -2
  -1   8  23 32.3587 12.1546   1
   0   8  23 57.8379 4.48843  -2
   0   8  23 57.8379 4.48843   1
  -2   8  24 12.1941 4.73185  -2
   2   8  23 12.1941 4.73185   1
  -3   8  24 12.8058 5.66281  -2
   3   8  23 12.8058 5.66281   1
  -4   8  25 2.34266 12.6290  -2
   4   8  23 2.34266 12.6290   1
   6   9  20 26.3065 14.6735  -2
  -6   9  23 26.3065 14.6735   1
   5   9  21 10.4599 7.28182  -2
  -5   9  23 10.4599 7.28182   1
   4   9  21 9.45443 8.95516  -2
  -4   9  23 9.45443 8.95516   1
   3   9  22 30.6966 6.45008  -2
  -3   9  23 30.6966 6.45008   1
   2   9  22 11.5170 4.39167  -2
  -2   9  23 11.5170 4.39167   1
   1   9  23 -2.5605 15.2605  -2
  -1   9  23 -2.5605 15.2605   1
   0   9  23 18.4060 3.17065  -2
   0   9  23 18.4060 3.17065   1
  -1   9  23 -1.7985 9.03574  -2
   1   9  23 -1.7985 9.03574   1
  -2   9  24 6.53068 6.78948  -2
   2   9  23 6.53068 6.78948   1
  -3   9  24 7.23965 9.16148  -2
   3   9  23 7.23965 9.16148   1
  -5  10  23 2.26143 4.62945   2
  -5  10  23 6.11616 3.61194   1
   3  10  22 8.47033 7.93512  -2
  -3  10  23 8.47033 7.93512   1
   2  10  22 -6.7453 11.1291  -2
  -2  10  23 -6.7453 11.1291   1
   0  10  23 49.0184 5.03295  -2
   0  10  23 49.0184 5.03295   1
   2  10  23 14.8626 3.77622   1
   2  10  23 35.3722 4.76292   2
  10   0  20 136.193 12.9624  -2
 -10   0  24 136.193 12.9624   1
   9   0  20 -3.2430 7.08018  -2
  -9   0  24 -3.2430 7.08018   1
   7   0  21 18.0016 6.94754  -2
  -7   0  24 18.0016 6.94754   1
   5   0  22 2.94479 5.34450  -2
  -5   0  24 2.94479 5.34450   1
   3   0  23 26.0516 12.2314  -2
  -3   0  24 26.0516 12.2314   1
   2   0  23 -13.437 6.95515  -2
  -2   0  24 -13.437 6.95515   1
   0   0  24 21.1293 5.33657  -2
   0   0  24 21.1293 5.33657   1
  -2   0  25 6.30816 5.68113  -2
   2   0  24 6.30816 5.68113   1
  -3   0  25 4.55372 6.72732  -2
   3   0  24 4.55372 6.72732   1
  -4   0  26 37.9415 8.28445  -2
   4   0  24 37.9415 8.28445   1
  -5   0  26 6.08728 4.84289  -2
   5   0  24 6.08728 4.84289   1
   7   0  24 16.2308 8.32523   1
  -7   0  27 21.6858 7.36816  -2
   7   0  24 21.6858 7.36816   1
  10   1  20 47.9646 6.42382  -2
 -10   1  24 47.9646 6.42382   1
   9   1  20 18.7634 6.09017  -2
  -9   1  24 18.7634 6.09017   1
   7   1  21 50.2865 6.13850  -2
  -7   1  24 50.2865 6.13850   1
   5   1  22 7.23264 4.20673  -2
  -5   1  24 7.23264 4.20673   1
   4   1  22 20.0878 15.7882  -2
  -4   1  24 20.0878 15.7882   1
   3   1  23 49.9162 9.10008  -2
  -3   1  24 49.9162 9.10008   1
   2   1  23 9.93246 3.57870  -2
  -2   1  24 9.93246 3.57870   1
   0   1  24 197.391 7.53975  -2
   0   1  24 197.391 7.53975   1
  -1   1  24 -21.144 72.6322  -2
   1   1  24 -21.144 72.6322   1
  -2   1  25 154.590 7.65219  -2
   2   1  24 154.590 7.65219   1
  -3   1  25 131.037 6.90124  -2
   3   1  24 131.037 6.90124   1
  -4   1  26 141.293 9.76805  -2
   4   1  24 141.293 9.76805   1
  -5   1  26 4.63514 3.76108  -2
   5   1  24 4.63514 3.76108   1
   7   1  24 66.3250 8.85016   1
  -7   1  27 40.0757 5.13344  -2
   7   1  24 40.0757 5.13344   1
   7   1  24 23.1355 8.34162   2
 -10   2  24 4.46223 2.84190   2
 -10   2  24 4.55547 3.15351   1
   9   2  20 -3.9086 6.00541  -2
  -9   2  24 -3.9086 6.00541   1
   7   2  21 7.30529 4.60547  -2
  -7   2  24 7.30529 4.60547   1
   5   2  22 2.95753 3.57746  -2
  -5   2  24 2.95753 3.57746   1
   4   2  22 144.174 20.1906  -2
  -4   2  24 144.174 20.1906   1
   3   2  23 4.30143 16.2239  -2
  -3   2  24 4.30143 16.2239   1
   2   2  23 41.2739 4.12106  -2
  -2   2  24 41.2739 4.12106   1
   0   2  24 151.433 6.69967  -2
   0   2  24 151.433 6.69967   1
  -2   2  25 119.166 6.26142  -2
   2   2  24 119.166 6.26142   1
  -3   2  25 115.863 7.91499  -2
   3   2  24 115.863 7.91499   1
  -4   2  26 93.7783 10.6472  -2
   4   2  24 93.7783 10.6472   1
  -5   2  26 59.8543 4.62349  -2
   5   2  24 59.8543 4.62349   1
   9   3  20 44.6878 7.58151  -2
  -9   3  24 44.6878 7.58151   1
   7   3  21 48.4639 6.07857  -2
  -7   3  24 48.4639 6.07857   1
   5   3  22 12.1662 5.48506  -2
  -5   3  24 12.1662 5.48506   1
   4   3  22 70.5857 18.4559  -2
  -4   3  24 70.5857 18.4559   1
   3   3  23 41.3945 8.36378  -2
  -3   3  24 41.3945 8.36378   1
   2   3  23 72.6191 5.19293  -2
  -2   3  24 72.6191 5.19293   1
   0   3  24 6.91513 2.42047  -2
   0   3  24 6.91513 2.42047   1
  -2   3  25 11.4659 4.18264  -2
   2   3  24 11.4659 4.18264   1
  -3   3  25 21.9829 6.29054  -2
   3   3  24 21.9829 6.29054   1
  -4   3  26 11.6912 5.37490  -2
   4   3  24 11.6912 5.37490   1
  -5   3  26 8.06372 3.85557  -2
   5   3  24 8.06372 3.85557   1
   9   4  20 43.2144 7.34606  -2
  -9   4  24 43.2144 7.34606   1
   7   4  21 49.0659 4.95573  -2
  -7   4  24 49.0659 4.95573   1
   5   4  22 124.859 7.13963  -2
  -5   4  24 124.859 7.13963   1
   4   4  22 214.609 104.628  -2
  -4   4  24 214.609 104.628   1
   3   4  23 20.7379 5.10831  -2
  -3   4  24 20.7379 5.10831   1
   2   4  23 22.5045 3.80219  -2
  -2   4  24 22.5045 3.80219   1
   0   4  24 12.4379 2.89556  -2
   0   4  24 12.4379 2.89556   1
  -2   4  25 -0.3830 4.06074  -2
   2   4  24 -0.3830 4.06074   1
  -3   4  25 3.83665 6.18176  -2
   3   4  24 3.83665 6.18176   1
  -4   4  26 43.9078 8.45667  -2
   4   4  24 43.9078 8.45667   1
  -5   4  26 6.36558 3.89636  -2
   5   4  24 6.36558 3.89636   1
   6   4  24 49.4178 7.58406   1
  -6   4  26 107.962 20.0013  -2
   6   4  24 107.962 20.0013   1
   9   5  20 3.21564 6.79037  -2
  -9   5  24 3.21564 6.79037   1
   7   5  21 21.9802 4.18115  -2
  -7   5  24 21.9802 4.18115   1
   5   5  22 3.94353 4.71631  -2
  -5   5  24 3.94353 4.71631   1
   4   5  22 36.2067 14.1777  -2
  -4   5  24 36.2067 14.1777   1
   3   5  23 1.00746 6.35576  -2
  -3   5  24 1.00746 6.35576   1
   2   5  23 14.3892 3.87341  -2
  -2   5  24 14.3892 3.87341   1
   0   5  24 27.2077 3.91578  -2
   0   5  24 27.2077 3.91578   1
  -2   5  25 22.9792 4.50865  -2
   2   5  24 22.9792 4.50865   1
  -3   5  25 49.1675 8.31208  -2
   3   5  24 49.1675 8.31208   1
  -4   5  26 16.3162 5.64284  -2
   4   5  24 16.3162 5.64284   1
  -5   5  26 6.41340 4.09876  -2
   5   5  24 6.41340 4.09876   1
   8   6  21 118.953 21.0021  -2
   8   6  20 118.953 21.0021  -2
  -8   6  24 118.953 21.0021   1
   7   6  21 6.31777 5.24809  -2
  -7   6  24 6.31777 5.24809   1
   5   6  22 7.69003 4.22804  -2
  -5   6  24 7.69003 4.22804   1
   4   6  22 43.3554 14.2180  -2
  -4   6  24 43.3554 14.2180   1
   3   6  23 20.6019 6.80266  -2
  -3   6  24 20.6019 6.80266   1
   2   6  23 2.99607 3.36419  -2
  -2   6  24 2.99607 3.36419   1
   0   6  24 14.0224 3.67935  -2
   0   6  24 14.0224 3.67935   1
  -1   6  24 18.4688 16.2302  -2
   1   6  24 18.4688 16.2302   1
  -2   6  25 7.83980 5.05164  -2
   2   6  24 7.83980 5.05164   1
  -3   6  25 20.4018 7.25067  -2
   3   6  24 20.4018 7.25067   1
  -4   6  26 71.8630 21.6026  -2
  -4   6  25 71.8630 21.6026  -2
   4   6  24 71.8630 21.6026   1
  -4   6  26 14.0033 12.3124  -2
   4   6  24 14.0033 12.3124   1
  -5   6  26 -4.1962 5.26515  -2
   5   6  24 -4.1962 5.26515   1
   7   7  21 30.0034 5.38326  -2
  -7   7  24 30.0034 5.38326   1
   6   7  21 74.8758 17.7818  -2
  -6   7  24 74.8758 17.7818   1
   5   7  22 22.1527 5.06126  -2
  -5   7  24 22.1527 5.06126   1
   4   7  22 20.0081 9.64101  -2
  -4   7  24 20.0081 9.64101   1
   3   7  23 121.361 11.9162  -2
  -3   7  24 121.361 11.9162   1
   2   7  23 116.052 7.33289  -2
  -2   7  24 116.052 7.33289   1
   0   7  24 7.40744 3.71574  -2
   0   7  24 7.40744 3.71574   1
  -1   7  24 60.7082 18.7053  -2
   1   7  24 60.7082 18.7053   1
  -2   7  25 78.8483 5.92213  -2
   2   7  24 78.8483 5.92213   1
  -3   7  25 28.8138 6.43137  -2
   3   7  24 28.8138 6.43137   1
   6   8  21 41.5553 15.5455  -2
  -6   8  24 41.5553 15.5455   1
   5   8  22 29.6073 5.39428  -2
  -5   8  24 29.6073 5.39428   1
   4   8  22 23.3239 12.6920  -2
  -4   8  24 23.3239 12.6920   1
   3   8  23 11.5463 7.90094  -2
  -3   8  24 11.5463 7.90094   1
   2   8  23 30.4521 4.36053  -2
  -2   8  24 30.4521 4.36053   1
   0   8  24 22.4720 3.77065  -2
   0   8  24 22.4720 3.77065   1
  -2   8  25 28.2445 7.04618  -2
   2   8  24 28.2445 7.04618   1
  -3   8  25 24.4856 9.24745  -2
   3   8  24 24.4856 9.24745   1
  -5   9  24 0.77499 3.37475   1
  -5   9  24 3.13912 3.50893   2
   2   9  23 15.4464 7.20239  -2
  -2   9  24 15.4464 7.20239   1
   0   9  24 20.4312 3.82994  -2
   0   9  24 20.4312 3.82994   1
  -1   9  24 25.6938 13.6643  -2
   1   9  24 25.6938 13.6643   1
   1   9  24 7.38831 8.86951   1
   2   9  24 8.51322 9.41600   2
   2   9  24 5.09212 8.52203   1
   9   0  21 128.214 18.6491  -2
  -9   0  25 128.214 18.6491   1
   7   0  22 9.42183 6.91756  -2
  -7   0  25 9.42183 6.91756   1
   5   0  23 71.1542 7.61630  -2
  -5   0  25 71.1542 7.61630   1
   2   0  24 -0.5907 7.17016  -2
  -2   0  25 -0.5907 7.17016   1
   0   0  25 0.55961 3.64743  -2
   0   0  25 0.55961 3.64743   1
  -2   0  26 20.5212 6.41985  -2
   2   0  25 20.5212 6.41985   1
  -3   0  26 12.0749 13.9081  -2
   3   0  25 12.0749 13.9081   1
  -4   0  27 2.03380 13.0914  -2
   4   0  25 2.03380 13.0914   1
  -5   0  27 12.5153 7.93164  -2
   5   0  25 12.5153 7.93164   1
   9   1  21 30.3539 8.18612  -2
  -9   1  25 30.3539 8.18612   1
   7   1  22 0.96786 4.54152  -2
  -7   1  25 0.96786 4.54152   1
   5   1  23 121.993 6.28520  -2
  -5   1  25 121.993 6.28520   1
   4   1  23 9.04400 12.9243  -2
  -4   1  25 9.04400 12.9243   1
   3   1  24 104.644 12.2537  -2
  -3   1  25 104.644 12.2537   1
   2   1  24 218.357 9.78012  -2
  -2   1  25 218.357 9.78012   1
   0   1  25 7.84114 3.12069  -2
   0   1  25 7.84114 3.12069   1
  -2   1  26 103.027 6.86506  -2
   2   1  25 103.027 6.86506   1
  -3   1  26 33.2210 5.56527  -2
   3   1  25 33.2210 5.56527   1
  -4   1  27 48.3948 8.38202  -2
   4   1  25 48.3948 8.38202   1
  -5   1  27 27.7028 4.26393  -2
   5   1  25 27.7028 4.26393   1
   9   2  21 11.2000 11.3869  -2
  -9   2  25 11.2000 11.3869   1
   7   2  22 24.0219 4.47388  -2
  -7   2  25 24.0219 4.47388   1
   5   2  23 47.2429 4.77468  -2
  -5   2  25 47.2429 4.77468   1
   4   2  23 99.7303 20.1158  -2
  -4   2  25 99.7303 20.1158   1
   3   2  24 192.276 26.7716  -2
  -3   2  25 192.276 26.7716   1
   2   2  24 82.1608 5.14233  -2
  -2   2  25 82.1608 5.14233   1
   0   2  25 25.7682 4.30176  -2
   0   2  25 25.7682 4.30176   1
  -2   2  26 19.8461 3.98970  -2
   2   2  25 19.8461 3.98970   1
  -3   2  26 10.8743 4.89473  -2
   3   2  25 10.8743 4.89473   1
  -4   2  27 10.5423 9.38344  -2
   4   2  25 10.5423 9.38344   1
  -5   2  27 18.9832 4.25424  -2
   5   2  25 18.9832 4.25424   1
   8   3  22 80.8170 20.5781  -2
   8   3  21 80.8170 20.5781  -2
  -8   3  25 80.8170 20.5781   1
   7   3  22 22.1161 5.14345  -2
  -7   3  25 22.1161 5.14345   1
   5   3  23 -2.9467 4.26081  -2
  -5   3  25 -2.9467 4.26081   1
   4   3  23 2.23481 14.5073  -2
  -4   3  25 2.23481 14.5073   1
   3   3  24 10.4160 7.51970  -2
  -3   3  25 10.4160 7.51970   1
   2   3  24 10.0138 4.08475  -2
  -2   3  25 10.0138 4.08475   1
   0   3  25 6.76067 2.85949  -2
   0   3  25 6.76067 2.85949   1
  -2   3  26 11.6013 4.19816  -2
   2   3  25 11.6013 4.19816   1
  -3   3  26 -0.5814 6.17142  -2
   3   3  25 -0.5814 6.17142   1
  -4   3  27 20.0151 6.91156  -2
   4   3  25 20.0151 6.91156   1
  -5   3  27 9.44274 4.79304  -2
   5   3  25 9.44274 4.79304   1
   8   4  22 49.3007 19.9444  -2
   8   4  21 49.3007 19.9444  -2
  -8   4  25 49.3007 19.9444   1
   7   4  22 1.47177 4.66028  -2
  -7   4  25 1.47177 4.66028   1
   5   4  23 16.6247 4.24753  -2
  -5   4  25 16.6247 4.24753   1
   4   4  23 7.10222 14.8900  -2
  -4   4  25 7.10222 14.8900   1
   3   4  24 2.36384 8.24162  -2
  -3   4  25 2.36384 8.24162   1
   2   4  24 8.81483 3.66838  -2
  -2   4  25 8.81483 3.66838   1
   0   4  25 -0.4607 2.73439  -2
   0   4  25 -0.4607 2.73439   1
  -2   4  26 5.71595 3.87104  -2
   2   4  25 5.71595 3.87104   1
  -3   4  26 -0.8073 6.52324  -2
   3   4  25 -0.8073 6.52324   1
  -4   4  27 4.43507 6.87436  -2
   4   4  25 4.43507 6.87436   1
  -5   4  27 71.1325 6.19723  -2
   5   4  25 71.1325 6.19723   1
  -8   5  25 -1.4404 3.95786   2
   7   5  22 25.1014 6.89956  -2
  -7   5  25 25.1014 6.89956   1
   5   5  23 34.8295 4.64962  -2
  -5   5  25 34.8295 4.64962   1
   4   5  23 27.4537 15.2690  -2
  -4   5  25 27.4537 15.2690   1
   3   5  24 32.8754 5.68235  -2
  -3   5  25 32.8754 5.68235   1
   2   5  24 8.53343 3.62766  -2
  -2   5  25 8.53343 3.62766   1
   0   5  25 1.97672 3.33336  -2
   0   5  25 1.97672 3.33336   1
  -2   5  26 23.2646 5.36033  -2
   2   5  25 23.2646 5.36033   1
  -3   5  26 6.86570 8.90726  -2
   3   5  25 6.86570 8.90726   1
  -4   5  27 6.80076 7.93507  -2
   4   5  25 6.80076 7.93507   1
   7   6  22 1.59551 6.49554  -2
  -7   6  25 1.59551 6.49554   1
   5   6  23 11.6696 6.11827  -2
  -5   6  25 11.6696 6.11827   1
   4   6  23 39.9832 16.1757  -2
  -4   6  25 39.9832 16.1757   1
   3   6  24 28.1298 6.14581  -2
  -3   6  25 28.1298 6.14581   1
   2   6  24 14.7932 4.15346  -2
  -2   6  25 14.7932 4.15346   1
   0   6  25 12.8355 4.08954  -2
   0   6  25 12.8355 4.08954   1
  -2   6  26 4.49792 4.44073  -2
   2   6  25 4.49792 4.44073   1
  -3   6  26 2.07003 7.54988  -2
   3   6  25 2.07003 7.54988   1
   4   6  25 1.28151 7.41936   1
   4   6  25 4.00043 8.81365   2
   5   7  23 18.1789 5.67675  -2
  -5   7  25 18.1789 5.67675   1
   4   7  23 4.83176 14.6381  -2
  -4   7  25 4.83176 14.6381   1
   3   7  24 -2.1883 12.4393  -2
  -3   7  25 -2.1883 12.4393   1
   2   7  24 68.4653 5.81748  -2
  -2   7  25 68.4653 5.81748   1
   0   7  25 9.85285 3.23227  -2
   0   7  25 9.85285 3.23227   1
  -1   7  26 90.8318 21.0108  -2
  -1   7  25 90.8318 21.0108  -2
   1   7  25 90.8318 21.0108   1
  -2   7  26 16.5313 8.56319  -2
   2   7  25 16.5313 8.56319   1
  -3   7  26 2.46406 8.31100  -2
   3   7  25 2.46406 8.31100   1
   2   8  24 6.48755 7.36470  -2
  -2   8  25 6.48755 7.36470   1
   0   8  25 12.9634 5.55031  -2
   0   8  25 12.9634 5.55031   1
  -1   8  25 19.9734 14.1901  -2
   1   8  25 19.9734 14.1901   1
  -8   0  26 -4.9634 5.87394   2
   7   0  23 6.14743 6.14444  -2
  -7   0  26 6.14743 6.14444   1
   5   0  24 9.48370 5.66773  -2
  -5   0  26 9.48370 5.66773   1
   2   0  25 1.59447 7.67312  -2
  -2   0  26 1.59447 7.67312   1
   0   0  26 10.9578 4.14228  -2
   0   0  26 10.9578 4.14228   1
  -2   0  27 6.16267 13.0497  -2
   2   0  26 6.16267 13.0497   1
  -3   0  27 59.3628 15.9447  -2
   3   0  26 59.3628 15.9447   1
  -4   0  28 24.1630 13.5887  -2
   4   0  26 24.1630 13.5887   1
  -8   1  26 17.7727 4.18397   2
   7   1  23 48.6931 5.89096  -2
  -7   1  26 48.6931 5.89096   1
   5   1  24 10.4051 4.44538  -2
  -5   1  26 10.4051 4.44538   1
   3   1  25 16.3917 13.6265  -2
  -3   1  26 16.3917 13.6265   1
   2   1  25 96.3663 6.98000  -2
  -2   1  26 96.3663 6.98000   1
   0   1  26 75.9402 4.70516  -2
   0   1  26 75.9402 4.70516   1
  -2   1  27 98.4212 6.65359  -2
   2   1  26 98.4212 6.65359   1
  -3   1  27 60.3145 11.3888  -2
   3   1  26 60.3145 11.3888   1
  -4   1  28 11.9037 8.25954  -2
   4   1  26 11.9037 8.25954   1
  -8   2  26 24.8910 5.17405   2
   7   2  23 39.1685 5.70383  -2
  -7   2  26 39.1685 5.70383   1
   5   2  24 53.9073 5.74787  -2
  -5   2  26 53.9073 5.74787   1
   4   2  24 40.2228 16.6050  -2
  -4   2  26 40.2228 16.6050   1
   3   2  25 9.44355 15.1309  -2
  -3   2  26 9.44355 15.1309   1
   2   2  25 10.0159 5.39001  -2
  -2   2  26 10.0159 5.39001   1
   0   2  26 12.4913 2.88883  -2
   0   2  26 12.4913 2.88883   1
  -2   2  27 3.14725 4.99322  -2
   2   2  26 3.14725 4.99322   1
  -3   2  27 25.0239 7.78907  -2
   3   2  26 25.0239 7.78907   1
  -4   2  28 22.3192 12.2266  -2
   4   2  26 22.3192 12.2266   1
   7   3  23 9.25652 6.67966  -2
  -7   3  26 9.25652 6.67966   1
   5   3  24 3.62611 3.90727  -2
  -5   3  26 3.62611 3.90727   1
   4   3  24 7.00475 14.6473  -2
  -4   3  26 7.00475 14.6473   1
   3   3  25 10.8983 14.8302  -2
  -3   3  26 10.8983 14.8302   1
   2   3  25 3.46629 4.20143  -2
  -2   3  26 3.46629 4.20143   1
   0   3  26 27.3656 3.66672  -2
   0   3  26 27.3656 3.66672   1
  -2   3  27 2.72477 4.49035  -2
   2   3  26 2.72477 4.49035   1
  -3   3  27 16.6222 7.59842  -2
   3   3  26 16.6222 7.59842   1
   4   3  26 15.0392 10.4079   2
   4   3  26 11.3994 4.87005   1
   7   4  23 3.26937 8.93696  -2
  -7   4  26 3.26937 8.93696   1
   5   4  24 8.89477 4.22687  -2
  -5   4  26 8.89477 4.22687   1
   4   4  24 44.5376 16.8491  -2
  -4   4  26 44.5376 16.8491   1
   3   4  25 0.87770 8.19660  -2
  -3   4  26 0.87770 8.19660   1
   2   4  25 0.84310 3.90582  -2
  -2   4  26 0.84310 3.90582   1
   0   4  26 133.826 7.60029  -2
   0   4  26 133.826 7.60029   1
  -2   4  27 30.4949 5.75473  -2
   2   4  26 30.4949 5.75473   1
  -3   4  27 82.4730 11.2173  -2
   3   4  26 82.4730 11.2173   1
   5   5  24 -0.7643 6.60928  -2
  -5   5  26 -0.7643 6.60928   1
   4   5  24 6.11290 11.6556  -2
  -4   5  26 6.11290 11.6556   1
   3   5  25 0.22668 8.55777  -2
  -3   5  26 0.22668 8.55777   1
   2   5  25 17.1851 4.55153  -2
  -2   5  26 17.1851 4.55153   1
   0   5  26 3.29383 3.13754  -2
   0   5  26 3.29383 3.13754   1
  -2   5  27 4.27632 6.00072  -2
   2   5  26 4.27632 6.00072   1
  -3   5  27 17.6969 7.89440  -2
   3   5  26 17.6969 7.89440   1
   5   6  24 1.06359 5.26203  -2
  -5   6  26 1.06359 5.26203   1
   3   6  25 5.22120 12.0277  -2
  -3   6  26 5.22120 12.0277   1
   2   6  25 -1.0065 5.28514  -2
  -2   6  26 -1.0065 5.28514   1
   0   6  26 4.28003 3.99575  -2
   0   6  26 4.28003 3.99575   1
  -1   6  26 71.7779 16.0314  -2
   1   6  26 71.7779 16.0314   1
   2   6  26 6.49116 7.90309   2
   2   6  26 -2.4697 4.99087   1
  -2   6  27 11.8015 7.34116  -2
   2   6  26 11.8015 7.34116   1
   3   7  25 3.15397 9.75216  -2
  -3   7  26 3.15397 9.75216   1
   2   7  25 -0.1880 7.04425  -2
  -2   7  26 -0.1880 7.04425   1
  -1   7  26 11.5666 9.49913   1
  -1   7  26 7.57013 9.06315   2
   0   7  26 28.7531 4.88238  -2
   0   7  26 28.7531 4.88238   1
   2   0  26 7.40205 13.6506  -2
  -2   0  27 7.40205 13.6506   1
   0   0  27 0.53452 3.61719  -2
   0   0  27 0.53452 3.61719   1
  -2   0  28 0.28238 7.02903  -2
   2   0  27 0.28238 7.02903   1
   5   1  25 18.7127 5.63467  -2
  -5   1  27 18.7127 5.63467   1
   2   1  26 71.9575 8.70315  -2
  -2   1  27 71.9575 8.70315   1
   0   1  27 35.3777 3.78443  -2
   0   1  27 35.3777 3.78443   1
  -2   1  28 10.4997 6.23102  -2
   2   1  27 10.4997 6.23102   1
  -3   1  28 -3.4199 10.5334  -2
   3   1  27 -3.4199 10.5334   1
   5   2  25 24.3711 5.65852  -2
  -5   2  27 24.3711 5.65852   1
   4   2  25 22.5543 13.3073  -2
  -4   2  27 22.5543 13.3073   1
   2   2  26 -2.8550 6.13315  -2
  -2   2  27 -2.8550 6.13315   1
   0   2  27 5.44286 3.31700  -2
   0   2  27 5.44286 3.31700   1
  -2   2  28 13.6091 5.87468  -2
   2   2  27 13.6091 5.87468   1
   5   3  25 14.3643 6.60803  -2
  -5   3  27 14.3643 6.60803   1
   2   3  26 13.0265 6.94808  -2
  -2   3  27 13.0265 6.94808   1
   0   3  27 42.0494 4.75163  -2
   0   3  27 42.0494 4.75163   1
  -2   3  28 -2.2770 5.47771  -2
   2   3  27 -2.2770 5.47771   1
   5   4  25 67.1104 9.40434  -2
  -5   4  27 67.1104 9.40434   1
   3   4  26 37.2900 12.5117  -2
  -3   4  27 37.2900 12.5117   1
   2   4  26 51.3006 6.56206  -2
  -2   4  27 51.3006 6.56206   1
   0   4  27 8.06826 3.79577  -2
   0   4  27 8.06826 3.79577   1
   2   4  27 15.8587 3.89678   2
   2   4  27 14.7510 4.12387   1
   2   5  26 28.5012 13.2048  -2
  -2   5  27 28.5012 13.2048   1
   0   5  27 43.2806 5.26416  -2
   0   5  27 43.2806 5.26416   1
   1   5  27 -1.8671 8.13073   1
   2   6  26 1.61131 8.97478  -2
  -2   6  27 1.61131 8.97478   1
  -5   0  28 5.51234 4.59953   2
  -5   0  28 8.69613 5.54026   1
   2   0  27 6.85887 9.99214  -2
  -2   0  28 6.85887 9.99214   1
   0   0  28 51.0598 5.60421  -2
   0   0  28 51.0598 5.60421   1
  -5   1  28 14.5837 6.73609   1
  -5   1  28 26.4076 5.27553   2
   2   1  27 -0.1264 9.64697  -2
  -2   1  28 -0.1264 9.64697   1
   0   1  28 7.71676 3.27779  -2
   0   1  28 7.71676 3.27779   1
   2   2  27 8.84389 6.91914  -2
  -2   2  28 8.84389 6.91914   1
   0   2  28 20.8647 3.56649  -2
   0   2  28 20.8647 3.56649   1
  -3   3  28 2.02260 5.07191   2
  -3   3  28 5.43072 9.43105   1
   2   3  27 16.2343 7.19786  -2
  -2   3  28 16.2343 7.19786   1
   0   3  28 4.36579 3.50281  -2
   0   3  28 4.36579 3.50281   1
   0   0   0    0.00    0.00   0
;
_shelx_hkl_checksum   66485

